<?xml version="1.0" encoding="UTF-8"?>

<!-- generated on 2026-05-03 12:13:57.202739 by Eclipse SUMO osmWebWizard.py v1_26_0+1000-c71e510aa5d
<configuration>
    <net-file value="/home/diaden/2026-05-03-12-13-41/osm.net.xml.gz"/>
    <output-trip-file value="/home/diaden/2026-05-03-12-13-41/osm.passenger.trips.xml"/>
    <route-file value="/home/diaden/2026-05-03-12-13-41/osm.passenger.rou.xml"/>
    <prefix value="veh"/>
    <trip-attributes value="departLane=&quot;best&quot;"/>
    <fringe-start-attributes value="departSpeed=&quot;max&quot;"/>
    <vehicle-class value="passenger"/>
    <lanes value="True"/>
    <fringe-factor value="5"/>
    <allow-fringe.min-length value="1000.0"/>
    <edge-permission value="passenger"/>
    <via-edge-types value="highway.motorway,highway.motorway_link,highway.trunk_link,highway.primary_link,highway.secondary_link,highway.tertiary_link"/>
    <min-distance value="300.0"/>
    <min-distance.fringe value="10.0"/>
    <remove-loops value="True"/>
    <insertion-density value="12.0"/>
</configuration>
-->

<routes xmlns:xsi="http://www.w3.org/2001/XMLSchema-instance" xsi:noNamespaceSchemaLocation="http://sumo.dlr.de/xsd/routes_file.xsd">
    <vType id="veh_passenger" vClass="passenger"/>
    <trip id="veh0" depart="0.00" from="154204353" to="184849822#6" departLane="best" type="veh_passenger" departSpeed="max"/>
    <trip id="veh1" depart="11.90" from="295298101#0" to="23265254#2" departLane="best" type="veh_passenger" departSpeed="max"/>
    <trip id="veh2" depart="23.81" from="430045516" to="28053288#1" departLane="best" type="veh_passenger" departSpeed="max"/>
    <trip id="veh3" depart="35.71" from="184849822#6" to="1241633682" departLane="best" type="veh_passenger"/>
    <trip id="veh4" depart="47.61" from="902481333#0" to="131700470#1" departLane="best" type="veh_passenger" departSpeed="max"/>
    <trip id="veh5" depart="59.52" from="264292226" to="80601115" departLane="best" type="veh_passenger"/>
    <trip id="veh6" depart="71.42" from="154204353" to="1272473366" departLane="best" type="veh_passenger" departSpeed="max"/>
    <trip id="veh7" depart="83.33" from="295298101#0" to="252110509#0" departLane="best" type="veh_passenger" departSpeed="max"/>
    <trip id="veh8" depart="95.23" from="902481333#2" to="252110509#2" departLane="best" type="veh_passenger"/>
    <trip id="veh9" depart="107.13" from="964943667" to="184849822#7" departLane="best" type="veh_passenger"/>
    <trip id="veh10" depart="119.04" from="-432750249#0" to="157600515#1" departLane="best" type="veh_passenger"/>
    <trip id="veh11" depart="130.94" from="902481333#0" to="497960128" departLane="best" type="veh_passenger" departSpeed="max"/>
    <trip id="veh12" depart="142.84" from="-1272473364#1" to="28053297#1" departLane="best" type="veh_passenger"/>
    <trip id="veh13" depart="154.75" from="295298101#0" to="23265254#1" departLane="best" type="veh_passenger" departSpeed="max"/>
    <trip id="veh14" depart="166.65" from="252110509#1" to="78432206#2" departLane="best" type="veh_passenger"/>
    <trip id="veh15" depart="178.56" from="184849822#10" to="252110509#2" departLane="best" type="veh_passenger"/>
    <trip id="veh16" depart="190.46" from="28053297#0" to="1241633682" departLane="best" type="veh_passenger" departSpeed="max"/>
    <trip id="veh17" depart="202.36" from="-1272473361" to="131700469#1" departLane="best" type="veh_passenger"/>
    <trip id="veh18" depart="214.27" from="252110509#0" to="184849822#8" departLane="best" type="veh_passenger"/>
    <trip id="veh19" depart="226.17" from="-432750249#1" to="252110509#2" departLane="best" type="veh_passenger"/>
    <trip id="veh20" depart="238.07" from="154204353" to="1241633682" departLane="best" type="veh_passenger" departSpeed="max"/>
    <trip id="veh21" depart="249.98" from="252110509#2" to="395544026#0" departLane="best" type="veh_passenger"/>
    <trip id="veh22" depart="261.88" from="902481333#0" to="-432750249#0" departLane="best" type="veh_passenger" departSpeed="max"/>
    <trip id="veh23" depart="273.78" from="252110509#0" to="497960128" departLane="best" type="veh_passenger"/>
    <trip id="veh24" depart="285.69" from="964943667" to="432750249#4" departLane="best" type="veh_passenger"/>
    <trip id="veh25" depart="297.59" from="252110509#1" to="157600567#0" departLane="best" type="veh_passenger"/>
    <trip id="veh26" depart="309.50" from="902481333#0" to="964943666" departLane="best" type="veh_passenger" departSpeed="max"/>
    <trip id="veh27" depart="321.40" from="252110509#3-AddedOffRampEdge" to="497960128" departLane="best" type="veh_passenger"/>
    <trip id="veh28" depart="333.30" from="-432750249#4" to="1241633682" departLane="best" type="veh_passenger"/>
    <trip id="veh29" depart="345.21" from="28053297#0" to="252110509#1" departLane="best" type="veh_passenger" departSpeed="max"/>
    <trip id="veh30" depart="357.11" from="264292225" to="594899552" departLane="best" type="veh_passenger" departSpeed="max"/>
    <trip id="veh31" depart="369.01" from="154204353" to="28053297#1" departLane="best" type="veh_passenger" departSpeed="max"/>
    <trip id="veh32" depart="380.92" from="295298101#0" to="131700456#1" departLane="best" type="veh_passenger" departSpeed="max"/>
    <trip id="veh33" depart="392.82" from="184849822#2" to="296577702" departLane="best" type="veh_passenger"/>
    <trip id="veh34" depart="404.72" from="-432750249#1" to="184849822#1" departLane="best" type="veh_passenger"/>
    <trip id="veh35" depart="416.63" from="23265254#0" to="1241633682" departLane="best" type="veh_passenger"/>
    <trip id="veh36" depart="428.53" from="430045516" to="28053288#1" departLane="best" type="veh_passenger" departSpeed="max"/>
    <trip id="veh37" depart="440.44" from="295298101#0" to="-1272473364#0" departLane="best" type="veh_passenger" departSpeed="max"/>
    <trip id="veh38" depart="452.34" from="-1272473364#0" to="30735491" departLane="best" type="veh_passenger"/>
    <trip id="veh39" depart="464.24" from="430045516" to="23396772#0" departLane="best" type="veh_passenger" departSpeed="max"/>
    <trip id="veh40" depart="476.15" from="430045516" to="497960128" departLane="best" type="veh_passenger" departSpeed="max"/>
    <trip id="veh41" depart="488.05" from="594899548" to="1272473358#0" departLane="best" type="veh_passenger"/>
    <trip id="veh42" depart="499.95" from="430045516" to="594899548-AddedOffRampEdge" departLane="best" type="veh_passenger" departSpeed="max"/>
    <trip id="veh43" depart="511.86" from="23265254#7" to="252110509#1" departLane="best" type="veh_passenger"/>
    <trip id="veh44" depart="523.76" from="430045516" to="594899548-AddedOffRampEdge" departLane="best" type="veh_passenger" departSpeed="max"/>
    <trip id="veh45" depart="535.67" from="-131700468#3" to="295298104#0" departLane="best" type="veh_passenger"/>
    <trip id="veh46" depart="547.57" from="430045516" to="594899548" departLane="best" type="veh_passenger" departSpeed="max"/>
    <trip id="veh47" depart="559.47" from="430045516" to="1272473364#0" departLane="best" type="veh_passenger" departSpeed="max"/>
    <trip id="veh48" depart="571.38" from="46974418" to="497960128" departLane="best" type="veh_passenger"/>
    <trip id="veh49" depart="583.28" from="154204353" to="430045512#1" departLane="best" type="veh_passenger" departSpeed="max"/>
    <trip id="veh50" depart="595.18" from="430045516" to="1272473358#2" departLane="best" type="veh_passenger" departSpeed="max"/>
    <trip id="veh51" depart="607.09" from="902481333#0" to="1272473364#1" departLane="best" type="veh_passenger" departSpeed="max"/>
    <trip id="veh52" depart="618.99" from="902481333#0" to="1241633682" departLane="best" type="veh_passenger" departSpeed="max"/>
    <trip id="veh53" depart="630.89" from="902481333#0" to="1272473364#0" departLane="best" type="veh_passenger" departSpeed="max"/>
    <trip id="veh54" depart="642.80" from="28053297#0" to="184849822#7" departLane="best" type="veh_passenger" departSpeed="max"/>
    <trip id="veh55" depart="654.70" from="295298101#0" to="131700470#0" departLane="best" type="veh_passenger" departSpeed="max"/>
    <trip id="veh56" depart="666.61" from="184849822#13" to="46974418" departLane="best" type="veh_passenger"/>
    <trip id="veh57" depart="678.51" from="184849822#12" to="157600556#1" departLane="best" type="veh_passenger"/>
    <trip id="veh58" depart="690.41" from="295298101#0" to="184849822#10" departLane="best" type="veh_passenger" departSpeed="max"/>
    <trip id="veh59" depart="702.32" from="-432750249#4" to="184849822#8" departLane="best" type="veh_passenger"/>
    <trip id="veh60" depart="714.22" from="295298101#0" to="131700470#1" departLane="best" type="veh_passenger" departSpeed="max"/>
    <trip id="veh61" depart="726.12" from="157600565#0" to="184849822#12" departLane="best" type="veh_passenger"/>
    <trip id="veh62" depart="738.03" from="295298101#0" to="-1272473364#0" departLane="best" type="veh_passenger" departSpeed="max"/>
    <trip id="veh63" depart="749.93" from="131700468#5" to="80523306" departLane="best" type="veh_passenger"/>
    <trip id="veh64" depart="761.84" from="252110509#1" to="430045512#1" departLane="best" type="veh_passenger"/>
    <trip id="veh65" depart="773.74" from="28053297#0" to="78432206#1" departLane="best" type="veh_passenger" departSpeed="max"/>
    <trip id="veh66" depart="785.64" from="296577702" to="184849822#6" departLane="best" type="veh_passenger"/>
    <trip id="veh67" depart="797.55" from="157600565#0" to="252110509#2" departLane="best" type="veh_passenger"/>
    <trip id="veh68" depart="809.45" from="395544026#0" to="184849822#9" departLane="best" type="veh_passenger"/>
    <trip id="veh69" depart="821.35" from="28053297#1" to="1272473364#1" departLane="best" type="veh_passenger"/>
    <trip id="veh70" depart="833.26" from="-432750249#2" to="1272473364#2" departLane="best" type="veh_passenger"/>
    <trip id="veh71" depart="845.16" from="23396772#0" to="594899552" departLane="best" type="veh_passenger"/>
    <trip id="veh72" depart="857.06" from="184849822#8" to="296577702" departLane="best" type="veh_passenger"/>
    <trip id="veh73" depart="868.97" from="23265254#7" to="1241633682" departLane="best" type="veh_passenger"/>
    <trip id="veh74" depart="880.87" from="252110509#2" to="-78432206#3" departLane="best" type="veh_passenger"/>
    <trip id="veh75" depart="892.78" from="-157600591#1" to="157600515#1" departLane="best" type="veh_passenger"/>
    <trip id="veh76" depart="904.68" from="154204353" to="131700470#0" departLane="best" type="veh_passenger" departSpeed="max"/>
    <trip id="veh77" depart="916.58" from="395544026#0" to="157600515#1" departLane="best" type="veh_passenger"/>
    <trip id="veh78" depart="928.49" from="964943667" to="157600515#0" departLane="best" type="veh_passenger"/>
    <trip id="veh79" depart="940.39" from="295298101#0" to="395544026#0" departLane="best" type="veh_passenger" departSpeed="max"/>
    <trip id="veh80" depart="952.29" from="295298101#0" to="296577702" departLane="best" type="veh_passenger" departSpeed="max"/>
    <trip id="veh81" depart="964.20" from="902481333#0" to="1241633682" departLane="best" type="veh_passenger" departSpeed="max"/>
    <trip id="veh82" depart="976.10" from="-1272473366" to="1241633682" departLane="best" type="veh_passenger"/>
    <trip id="veh83" depart="988.01" from="1272473362" to="252110509#3-AddedOffRampEdge" departLane="best" type="veh_passenger"/>
    <trip id="veh84" depart="999.91" from="430045516" to="80523306" departLane="best" type="veh_passenger" departSpeed="max"/>
    <trip id="veh85" depart="1011.81" from="902481333#0" to="157600515#1" departLane="best" type="veh_passenger" departSpeed="max"/>
    <trip id="veh86" depart="1023.72" from="296577702" to="-295298104#0" departLane="best" type="veh_passenger"/>
    <trip id="veh87" depart="1035.62" from="295298101#1" to="252110509#1" departLane="best" type="veh_passenger"/>
    <trip id="veh88" depart="1047.52" from="430045516" to="157600515#0" departLane="best" type="veh_passenger" departSpeed="max"/>
    <trip id="veh89" depart="1059.43" from="295298101#0" to="432750249#0" departLane="best" type="veh_passenger" departSpeed="max"/>
    <trip id="veh90" depart="1071.33" from="154204353" to="430045512#1" departLane="best" type="veh_passenger" departSpeed="max"/>
    <trip id="veh91" depart="1083.23" from="-1272473364#1" to="78432206#0" departLane="best" type="veh_passenger"/>
    <trip id="veh92" depart="1095.14" from="295298101#1" to="252110509#3" departLane="best" type="veh_passenger"/>
    <trip id="veh93" depart="1107.04" from="252110509#3" to="430045512#1" departLane="best" type="veh_passenger"/>
    <trip id="veh94" depart="1118.95" from="28053297#0" to="184849822#12" departLane="best" type="veh_passenger" departSpeed="max"/>
    <trip id="veh95" depart="1130.85" from="157600565#1" to="-78432206#1" departLane="best" type="veh_passenger"/>
    <trip id="veh96" depart="1142.75" from="902481333#0" to="23242835" departLane="best" type="veh_passenger" departSpeed="max"/>
    <trip id="veh97" depart="1154.66" from="131700469#0" to="-1272473364#2" departLane="best" type="veh_passenger"/>
    <trip id="veh98" depart="1166.56" from="264292226" to="1272473364#1" departLane="best" type="veh_passenger"/>
    <trip id="veh99" depart="1178.46" from="295298101#1" to="-78432206#3" departLane="best" type="veh_passenger"/>
    <trip id="veh100" depart="1190.37" from="46974418" to="184849822#3" departLane="best" type="veh_passenger"/>
    <trip id="veh101" depart="1202.27" from="252110509#2" to="157600569#1" departLane="best" type="veh_passenger"/>
    <trip id="veh102" depart="1214.17" from="430045516" to="157600515#1" departLane="best" type="veh_passenger" departSpeed="max"/>
    <trip id="veh103" depart="1226.08" from="-432750249#1" to="252110509#2" departLane="best" type="veh_passenger"/>
    <trip id="veh104" depart="1237.98" from="-157600591#1" to="1241633682" departLane="best" type="veh_passenger"/>
    <trip id="veh105" depart="1249.89" from="395544026#0" to="252110509#0" departLane="best" type="veh_passenger"/>
    <trip id="veh106" depart="1261.79" from="430045516" to="1272473358#2" departLane="best" type="veh_passenger" departSpeed="max"/>
    <trip id="veh107" depart="1273.69" from="252110509#0" to="497960128" departLane="best" type="veh_passenger"/>
    <trip id="veh108" depart="1285.60" from="28053297#1" to="252110509#0" departLane="best" type="veh_passenger"/>
    <trip id="veh109" depart="1297.50" from="295298101#0" to="1241633682" departLane="best" type="veh_passenger" departSpeed="max"/>
    <trip id="veh110" depart="1309.40" from="-1272473361" to="169368044#0" departLane="best" type="veh_passenger"/>
    <trip id="veh111" depart="1321.31" from="184849822#3" to="1272473359" departLane="best" type="veh_passenger"/>
    <trip id="veh112" depart="1333.21" from="430045516" to="23396772#0" departLane="best" type="veh_passenger" departSpeed="max"/>
    <trip id="veh113" depart="1345.12" from="902481333#0" to="964943667" departLane="best" type="veh_passenger" departSpeed="max"/>
    <trip id="veh114" depart="1357.02" from="295298101#0" to="1272473364#0" departLane="best" type="veh_passenger" departSpeed="max"/>
    <trip id="veh115" depart="1368.92" from="-157600569#0" to="296577702" departLane="best" type="veh_passenger"/>
    <trip id="veh116" depart="1380.83" from="28053297#0" to="252110509#2" departLane="best" type="veh_passenger" departSpeed="max"/>
    <trip id="veh117" depart="1392.73" from="184849822#7" to="131700470#1" departLane="best" type="veh_passenger"/>
    <trip id="veh118" depart="1404.63" from="295298101#0" to="497960128" departLane="best" type="veh_passenger" departSpeed="max"/>
    <trip id="veh119" depart="1416.54" from="131700469#1" to="157600515#1" departLane="best" type="veh_passenger"/>
    <trip id="veh120" depart="1428.44" from="264292226" to="594899552" departLane="best" type="veh_passenger"/>
    <trip id="veh121" depart="1440.34" from="131700456#0" to="23265254#4" departLane="best" type="veh_passenger"/>
    <trip id="veh122" depart="1452.25" from="252110509#1" to="-432750249#4" departLane="best" type="veh_passenger"/>
    <trip id="veh123" depart="1464.15" from="296577702" to="184849822#7" departLane="best" type="veh_passenger"/>
    <trip id="veh124" depart="1476.06" from="264292226" to="157600515#1" departLane="best" type="veh_passenger"/>
    <trip id="veh125" depart="1487.96" from="78432206#1" to="184849822#7" departLane="best" type="veh_passenger"/>
    <trip id="veh126" depart="1499.86" from="23396772#0" to="594899552" departLane="best" type="veh_passenger"/>
    <trip id="veh127" depart="1511.77" from="252110509#3-AddedOffRampEdge" to="430045512#1" departLane="best" type="veh_passenger"/>
    <trip id="veh128" depart="1523.67" from="28053297#0" to="964943667" departLane="best" type="veh_passenger" departSpeed="max"/>
    <trip id="veh129" depart="1535.57" from="264292226" to="157600515#0" departLane="best" type="veh_passenger"/>
    <trip id="veh130" depart="1547.48" from="252110509#1" to="131700469#1" departLane="best" type="veh_passenger"/>
    <trip id="veh131" depart="1559.38" from="30735492" to="28053288#1" departLane="best" type="veh_passenger" departSpeed="max"/>
    <trip id="veh132" depart="1571.29" from="430045516" to="157600515#1" departLane="best" type="veh_passenger" departSpeed="max"/>
    <trip id="veh133" depart="1583.19" from="295298101#0" to="430045512#1" departLane="best" type="veh_passenger" departSpeed="max"/>
    <trip id="veh134" depart="1595.09" from="902481333#0" to="184849822#4" departLane="best" type="veh_passenger" departSpeed="max"/>
    <trip id="veh135" depart="1607.00" from="-154204353" to="184849822#5" departLane="best" type="veh_passenger"/>
    <trip id="veh136" depart="1618.90" from="296577702" to="157600565#0" departLane="best" type="veh_passenger"/>
    <trip id="veh137" depart="1630.80" from="295298101#0" to="1241633682" departLane="best" type="veh_passenger" departSpeed="max"/>
    <trip id="veh138" depart="1642.71" from="295298101#0" to="497960128" departLane="best" type="veh_passenger" departSpeed="max"/>
    <trip id="veh139" depart="1654.61" from="23265254#2" to="131700469#0" departLane="best" type="veh_passenger"/>
    <trip id="veh140" depart="1666.51" from="296577702" to="296577703#1" departLane="best" type="veh_passenger"/>
    <trip id="veh141" depart="1678.42" from="-432750249#0" to="252110509#2" departLane="best" type="veh_passenger"/>
    <trip id="veh142" depart="1690.32" from="30735492" to="157600569#0" departLane="best" type="veh_passenger" departSpeed="max"/>
    <trip id="veh143" depart="1702.23" from="46974418" to="157600569#1" departLane="best" type="veh_passenger"/>
    <trip id="veh144" depart="1714.13" from="-157600569#1" to="430045512#1" departLane="best" type="veh_passenger"/>
    <trip id="veh145" depart="1726.03" from="184849822#1" to="157600515#1" departLane="best" type="veh_passenger"/>
    <trip id="veh146" depart="1737.94" from="-1272473364#1" to="430045512#1" departLane="best" type="veh_passenger"/>
    <trip id="veh147" depart="1749.84" from="295298101#0" to="157600567#0" departLane="best" type="veh_passenger" departSpeed="max"/>
    <trip id="veh148" depart="1761.74" from="131700470#1" to="157600515#1" departLane="best" type="veh_passenger"/>
    <trip id="veh149" depart="1773.65" from="902481333#0" to="252110509#3-AddedOffRampEdge" departLane="best" type="veh_passenger" departSpeed="max"/>
    <trip id="veh150" depart="1785.55" from="295298101#0" to="296577702" departLane="best" type="veh_passenger" departSpeed="max"/>
    <trip id="veh151" depart="1797.45" from="-157600569#1" to="252110509#0" departLane="best" type="veh_passenger"/>
    <trip id="veh152" depart="1809.36" from="169368044#1" to="430045512#1" departLane="best" type="veh_passenger"/>
    <trip id="veh153" depart="1821.26" from="28053297#0" to="157600515#0" departLane="best" type="veh_passenger" departSpeed="max"/>
    <trip id="veh154" depart="1833.17" from="295298101#0" to="252110509#1" departLane="best" type="veh_passenger" departSpeed="max"/>
    <trip id="veh155" depart="1845.07" from="295298101#0" to="28053297#1" departLane="best" type="veh_passenger" departSpeed="max"/>
    <trip id="veh156" depart="1856.97" from="295298101#0" to="46974418" departLane="best" type="veh_passenger" departSpeed="max"/>
    <trip id="veh157" depart="1868.88" from="184849822#10" to="296577702" departLane="best" type="veh_passenger"/>
    <trip id="veh158" depart="1880.78" from="264292226" to="80601115" departLane="best" type="veh_passenger"/>
    <trip id="veh159" depart="1892.68" from="264292225" to="594899552" departLane="best" type="veh_passenger" departSpeed="max"/>
    <trip id="veh160" depart="1904.59" from="184849822#6" to="-432750249#4" departLane="best" type="veh_passenger"/>
    <trip id="veh161" depart="1916.49" from="902481333#0" to="1241633682" departLane="best" type="veh_passenger" departSpeed="max"/>
    <trip id="veh162" depart="1928.40" from="902481333#0" to="497960128" departLane="best" type="veh_passenger" departSpeed="max"/>
    <trip id="veh163" depart="1940.30" from="23265254#0" to="430045512#1" departLane="best" type="veh_passenger"/>
    <trip id="veh164" depart="1952.20" from="430045516" to="594899552" departLane="best" type="veh_passenger" departSpeed="max"/>
    <trip id="veh165" depart="1964.11" from="-131700468#3" to="594899548-AddedOffRampEdge" departLane="best" type="veh_passenger"/>
    <trip id="veh166" depart="1976.01" from="154204353" to="-157600569#0" departLane="best" type="veh_passenger" departSpeed="max"/>
    <trip id="veh167" depart="1987.91" from="430045516" to="594899552" departLane="best" type="veh_passenger" departSpeed="max"/>
    <trip id="veh168" depart="1999.82" from="184849822#11" to="157600556#1" departLane="best" type="veh_passenger"/>
    <trip id="veh169" depart="2011.72" from="902481333#0" to="157600565#1" departLane="best" type="veh_passenger" departSpeed="max"/>
    <trip id="veh170" depart="2023.62" from="252110509#3" to="157600556#1" departLane="best" type="veh_passenger"/>
    <trip id="veh171" depart="2035.53" from="902481333#0" to="497960128" departLane="best" type="veh_passenger" departSpeed="max"/>
    <trip id="veh172" depart="2047.43" from="264292226" to="84516980" departLane="best" type="veh_passenger"/>
    <trip id="veh173" depart="2059.34" from="184849822#9" to="157600515#1" departLane="best" type="veh_passenger"/>
    <trip id="veh174" depart="2071.24" from="295298101#0" to="252110509#2" departLane="best" type="veh_passenger" departSpeed="max"/>
    <trip id="veh175" depart="2083.14" from="430045516" to="1272473358#2" departLane="best" type="veh_passenger" departSpeed="max"/>
    <trip id="veh176" depart="2095.05" from="-432750249#0" to="30735491" departLane="best" type="veh_passenger"/>
    <trip id="veh177" depart="2106.95" from="46974418" to="131700470#0" departLane="best" type="veh_passenger"/>
    <trip id="veh178" depart="2118.85" from="157600565#1" to="1241633682" departLane="best" type="veh_passenger"/>
    <trip id="veh179" depart="2130.76" from="-1272473364#2" to="430045512#1" departLane="best" type="veh_passenger"/>
    <trip id="veh180" depart="2142.66" from="430045516" to="594899548" departLane="best" type="veh_passenger" departSpeed="max"/>
    <trip id="veh181" depart="2154.57" from="902481333#0" to="-157600569#0" departLane="best" type="veh_passenger" departSpeed="max"/>
    <trip id="veh182" depart="2166.47" from="252110509#2" to="157600515#1" departLane="best" type="veh_passenger"/>
    <trip id="veh183" depart="2178.37" from="295298101#0" to="184849822#3" departLane="best" type="veh_passenger" departSpeed="max"/>
    <trip id="veh184" depart="2190.28" from="-432750249#4" to="252110509#0" departLane="best" type="veh_passenger"/>
    <trip id="veh185" depart="2202.18" from="-432750249#0" to="1272473364#1" departLane="best" type="veh_passenger"/>
    <trip id="veh186" depart="2214.08" from="295298101#0" to="23265254#3" departLane="best" type="veh_passenger" departSpeed="max"/>
    <trip id="veh187" depart="2225.99" from="295298101#0" to="30735491" departLane="best" type="veh_passenger" departSpeed="max"/>
    <trip id="veh188" depart="2237.89" from="184849822#6" to="169368044#1" departLane="best" type="veh_passenger"/>
    <trip id="veh189" depart="2249.79" from="23265254#1" to="1241633682" departLane="best" type="veh_passenger"/>
    <trip id="veh190" depart="2261.70" from="78432206#1" to="-157600569#1" departLane="best" type="veh_passenger"/>
    <trip id="veh191" depart="2273.60" from="184849822#4" to="-78432206#1" departLane="best" type="veh_passenger"/>
    <trip id="veh192" depart="2285.51" from="184849822#8" to="252110509#3-AddedOffRampEdge" departLane="best" type="veh_passenger"/>
    <trip id="veh193" depart="2297.41" from="30735492" to="594899548" departLane="best" type="veh_passenger" departSpeed="max"/>
    <trip id="veh194" depart="2309.31" from="28053297#0" to="157600515#0" departLane="best" type="veh_passenger" departSpeed="max"/>
    <trip id="veh195" depart="2321.22" from="23265254#0" to="296577703#1" departLane="best" type="veh_passenger"/>
    <trip id="veh196" depart="2333.12" from="28053297#0" to="430045512#1" departLane="best" type="veh_passenger" departSpeed="max"/>
    <trip id="veh197" depart="2345.02" from="430045516" to="84516980" departLane="best" type="veh_passenger" departSpeed="max"/>
    <trip id="veh198" depart="2356.93" from="184849822#6" to="-1272473364#0" departLane="best" type="veh_passenger"/>
    <trip id="veh199" depart="2368.83" from="23265254#6" to="1241633682" departLane="best" type="veh_passenger"/>
    <trip id="veh200" depart="2380.74" from="30735492" to="1272473358#1" departLane="best" type="veh_passenger" departSpeed="max"/>
    <trip id="veh201" depart="2392.64" from="23265254#0" to="28053297#1" departLane="best" type="veh_passenger"/>
    <trip id="veh202" depart="2404.54" from="131700456#0" to="252110509#1" departLane="best" type="veh_passenger"/>
    <trip id="veh203" depart="2416.45" from="295298101#0" to="1272473364#0" departLane="best" type="veh_passenger" departSpeed="max"/>
    <trip id="veh204" depart="2428.35" from="295298101#0" to="184849822#2" departLane="best" type="veh_passenger" departSpeed="max"/>
    <trip id="veh205" depart="2440.25" from="252110509#0" to="1272473364#1" departLane="best" type="veh_passenger"/>
    <trip id="veh206" depart="2452.16" from="295298101#0" to="184849822#3" departLane="best" type="veh_passenger" departSpeed="max"/>
    <trip id="veh207" depart="2464.06" from="295298101#0" to="-154204353" departLane="best" type="veh_passenger" departSpeed="max"/>
    <trip id="veh208" depart="2475.96" from="23265254#5" to="252110509#0" departLane="best" type="veh_passenger"/>
    <trip id="veh209" depart="2487.87" from="154204353" to="1241633682" departLane="best" type="veh_passenger" departSpeed="max"/>
    <trip id="veh210" depart="2499.77" from="-1272473364#0" to="296577702" departLane="best" type="veh_passenger"/>
    <trip id="veh211" depart="2511.68" from="131700468#4" to="157600515#1" departLane="best" type="veh_passenger"/>
    <trip id="veh212" depart="2523.58" from="-157600569#0" to="-1272473366" departLane="best" type="veh_passenger"/>
    <trip id="veh213" depart="2535.48" from="78432206#1" to="497960128" departLane="best" type="veh_passenger"/>
    <trip id="veh214" depart="2547.39" from="296577702" to="157600565#1" departLane="best" type="veh_passenger"/>
    <trip id="veh215" depart="2559.29" from="1272473361" to="-1272473366" departLane="best" type="veh_passenger"/>
    <trip id="veh216" depart="2571.19" from="184849822#3" to="430045512#1" departLane="best" type="veh_passenger"/>
    <trip id="veh217" depart="2583.10" from="430045516" to="1272473358#2" departLane="best" type="veh_passenger" departSpeed="max"/>
    <trip id="veh218" depart="2595.00" from="28053297#0" to="184849822#9" departLane="best" type="veh_passenger" departSpeed="max"/>
    <trip id="veh219" depart="2606.90" from="184849822#6" to="131700470#1" departLane="best" type="veh_passenger"/>
    <trip id="veh220" depart="2618.81" from="1272473361" to="184849822#7" departLane="best" type="veh_passenger"/>
    <trip id="veh221" depart="2630.71" from="296577703#1" to="430045512#1" departLane="best" type="veh_passenger"/>
    <trip id="veh222" depart="2642.62" from="430045516" to="1272473358#2" departLane="best" type="veh_passenger" departSpeed="max"/>
    <trip id="veh223" depart="2654.52" from="28053297#0" to="296577703#1" departLane="best" type="veh_passenger" departSpeed="max"/>
    <trip id="veh224" depart="2666.42" from="295298101#0" to="1241633682" departLane="best" type="veh_passenger" departSpeed="max"/>
    <trip id="veh225" depart="2678.33" from="28053297#1" to="1241633682" departLane="best" type="veh_passenger"/>
    <trip id="veh226" depart="2690.23" from="-432750249#0" to="157600569#1" departLane="best" type="veh_passenger"/>
    <trip id="veh227" depart="2702.13" from="-295298104#0" to="184849822#6" departLane="best" type="veh_passenger"/>
    <trip id="veh228" depart="2714.04" from="184849822#12" to="169368044#1" departLane="best" type="veh_passenger"/>
    <trip id="veh229" depart="2725.94" from="-295298104#0" to="432750249#2" departLane="best" type="veh_passenger"/>
    <trip id="veh230" depart="2737.85" from="252110509#3-AddedOffRampEdge" to="184849822#10" departLane="best" type="veh_passenger"/>
    <trip id="veh231" depart="2749.75" from="184849822#3" to="184849822#12" departLane="best" type="veh_passenger"/>
    <trip id="veh232" depart="2761.65" from="184849822#7" to="28053297#1" departLane="best" type="veh_passenger"/>
    <trip id="veh233" depart="2773.56" from="252110509#0" to="184849822#9" departLane="best" type="veh_passenger"/>