<?xml version="1.0" encoding="UTF-8"?>

<!-- generated on 2026-05-03 12:13:56.639548 by Eclipse SUMO osmWebWizard.py v1_26_0+1000-c71e510aa5d
<configuration>
    <net-file value="/home/diaden/2026-05-03-12-13-41/osm.net.xml.gz"/>
    <ptlines-file value="/home/diaden/2026-05-03-12-13-41/osm_ptlines.xml"/>
    <ptstops-file value="/home/diaden/2026-05-03-12-13-41/osm_stops.add.xml"/>
    <output-file value="/home/diaden/2026-05-03-12-13-41/osm_pt.rou.xml"/>
    <stopinfos-file value="/home/diaden/2026-05-03-12-13-41/stopinfos.xml"/>
    <routes-file value="/home/diaden/2026-05-03-12-13-41/vehroutes.xml"/>
    <trips-file value="/home/diaden/2026-05-03-12-13-41/trips.trips.xml"/>
    <min-stops value="0"/>
    <extend-to-fringe value="True"/>
    <random-begin value="True"/>
    <seed value="42"/>
    <ignore-errors value="True"/>
    <types value="bus"/>
    <vtype-prefix value="pt_"/>
    <verbose value="True"/>
</configuration>
-->

<routes xmlns:xsi="http://www.w3.org/2001/XMLSchema-instance" xsi:noNamespaceSchemaLocation="http://sumo.dlr.de/xsd/routes_file.xsd">
    <vType id="pt_bus" vClass="bus"/>
    <vType id="pt_tram" vClass="tram"/>
    <vType id="pt_train" vClass="rail"/>
    <vType id="pt_subway" vClass="subway"/>
    <vType id="pt_light_rail" vClass="rail_urban"/>
    <vType id="pt_monorail" vClass="rail_urban"/>
    <vType id="pt_trolleybus" vClass="bus"/>
    <vType id="pt_minibus" vClass="bus"/>
    <vType id="pt_share_taxi" vClass="taxi"/>
    <vType id="pt_aerialway" vClass="cable_car" length="2.5" width="2" personCapacity="4"/>
    <vType id="pt_ferry" vClass="ship"/>
    <route id="pt_bus_155:0" color="255,154,210" edges="295298101#0 295298101#1 131700456#0 131700456#1 23265254#0 23265254#1 23265254#2 23265254#3 23265254#4 23265254#5 23265254#6 23265254#7 430045512#1" >
        <stop busStop="1953905311" duration="20" until="107.0"/> <!-- Сквер Маршала Жукова -->
        <stop busStop="1390556611" duration="20" until="192.0"/> <!-- Проспект Маршала Жукова, 14 -->
        <stop busStop="1390556630" duration="20" until="286.0"/> <!-- Метро «Народное Ополчение» -->
        <stop busStop="4730949125" duration="20" until="342.0"/> <!-- Метро «Народное Ополчение» -->
    </route>
    <route id="pt_bus_155:1" color="255,154,210" edges="902481333#0 902481333#2 184849822#1 184849822#2 184849822#3 184849822#4 184849822#5 184849822#6 184849822#7 184849822#8 184849822#9 184849822#10 184849822#11 184849822#12 184849822#13 1272473362 157600515#0 157600515#1" >
        <stop busStop="1953905283" duration="20" until="97.0"/> <!-- Метро «Народное Ополчение» -->
        <stop busStop="1953905349" duration="20" until="194.0"/> <!-- Улица Демьяна Бедного -->
        <stop busStop="1953905353" duration="20" until="252.0"/> <!-- Проспект Маршала Жукова, 14 -->
        <stop busStop="1953905318" duration="20" until="320.0"/> <!-- Сквер Маршала Жукова -->
        <stop busStop="4730949154" duration="20" until="487.0"/> <!-- МЦК «Хорошёво» -->
    </route>
    <route id="pt_bus_294:0" color="194,230,255" edges="30735492 131700468#2 131700468#3 131700468#4 131700468#5 264292224 264292226 264292208 88607524 84516980 497960128 157600569#0 157600569#1 1272473364#0 1272473364#1 1272473364#2 295298104#0 295298104#1 23242835 157600515#0 157600515#1" >
        <stop busStop="2699824215" duration="20" until="81.0"/> <!-- Поликлиника -->
        <stop busStop="981969019" duration="20" until="174.0"/> <!-- Улица Мнёвники, 4 -->
        <stop busStop="4730949154" duration="20" until="270.0"/> <!-- МЦК «Хорошёво» -->
    </route>
    <route id="pt_bus_294:1" color="194,230,255" edges="295298101#0 295298101#1 265663227 -295298104#1 -295298104#0 -1272473364#2 -1272473364#1 -1272473364#0 -157600569#1 -157600569#0 157600567#0 157600567#1 157600565#0 157600565#1 296577703#1 169368040 131700469#0 131700469#1 -432750249#4 -432750249#2 -432750249#1 -432750249#0 -157600591#1 -1272473366" >
        <stop busStop="-1449161206" duration="20" until="86.0"/> <!-- Улица Мнёвники, 4 -->
        <stop busStop="-1123631408" duration="20" until="173.0"/> <!-- Улица Мнёвники -->
    </route>
    <route id="pt_bus_322:0" color="255,154,210" edges="1272473366 157600591#1 432750249#0 432750249#1 432750249#2 432750249#4 1272473359 131700470#0 131700470#1 497960128 157600569#0 157600569#1 1272473364#0 1272473364#1 1272473364#2 295298104#0 295298104#1 23242835 157600515#0 157600515#1" >
        <stop busStop="12997959838" duration="20" until="41.0"/> <!-- Улица Мнёвники -->
        <stop busStop="981969019" duration="20" until="137.0"/> <!-- Улица Мнёвники, 4 -->
        <stop busStop="4730949154" duration="20" until="269.0"/> <!-- МЦК «Хорошёво» -->
    </route>
    <route id="pt_bus_322:1" color="255,154,210" edges="295298101#0 295298101#1 265663227 -295298104#1 -295298104#0 -1272473364#2 -1272473364#1 -1272473364#0 -157600569#1 -157600569#0 157600567#0 157600567#1 157600565#0 157600565#1 296577703#1 169368040 131700469#0 131700469#1 -432750249#4 -432750249#2 -432750249#1 -432750249#0 -157600591#1 -1272473366" >
        <stop busStop="-1449161206" duration="20" until="113.0"/> <!-- Улица Мнёвники, 4 -->
        <stop busStop="-1123631408" duration="20" until="201.0"/> <!-- Улица Мнёвники -->
    </route>
    <route id="pt_bus_345:0" color="194,230,255" edges="295298101#0 295298101#1 131700456#0 131700456#1 23265254#0 23265254#1 23265254#2 23265254#3 23265254#4 23265254#5 23265254#6 23265254#7 430045512#1" >
        <stop busStop="1953905311" duration="20" until="89.0"/> <!-- Сквер Маршала Жукова -->
        <stop busStop="1390556611" duration="20" until="176.0"/> <!-- Проспект Маршала Жукова, 14 -->
        <stop busStop="1390556630" duration="20" until="264.0"/> <!-- Метро «Народное Ополчение» -->
        <stop busStop="4730949125" duration="20" until="319.0"/> <!-- Метро «Народное Ополчение» -->
    </route>
    <route id="pt_bus_345:1" color="194,230,255" edges="902481333#0 902481333#2 184849822#1 184849822#2 184849822#3 184849822#4 184849822#5 184849822#6 184849822#7 184849822#8 184849822#9 184849822#10 184849822#11 184849822#12 184849822#13 1272473362 157600515#0 157600515#1" >
        <stop busStop="1953905283" duration="20" until="47.0"/> <!-- Метро «Народное Ополчение» -->
        <stop busStop="1953905349" duration="20" until="143.0"/> <!-- Улица Демьяна Бедного -->
        <stop busStop="1953905353" duration="20" until="198.0"/> <!-- Проспект Маршала Жукова, 14 -->
        <stop busStop="1953905318" duration="20" until="266.0"/> <!-- Сквер Маршала Жукова -->
        <stop busStop="4730949154" duration="20" until="357.0"/> <!-- МЦК «Хорошёво» -->
    </route>
    <route id="pt_bus_345а:0" color="194,230,255" edges="902481333#0 902481333#2 184849822#1 184849822#2 184849822#3 184849822#4 184849822#5 184849822#6 184849822#7 184849822#8 184849822#9 184849822#10 184849822#11 184849822#12 184849822#13 1272473362 157600515#0 157600515#1" >
        <stop busStop="1953905283" duration="20" until="48.0"/> <!-- Метро «Народное Ополчение» -->
        <stop busStop="1953905349" duration="20" until="118.0"/> <!-- Улица Демьяна Бедного -->
        <stop busStop="1953905353" duration="20" until="181.0"/> <!-- Проспект Маршала Жукова, 14 -->
        <stop busStop="1953905318" duration="20" until="248.0"/> <!-- Сквер Маршала Жукова -->
        <stop busStop="4730949154" duration="20" until="357.0"/> <!-- МЦК «Хорошёво» -->
    </route>
    <route id="pt_bus_390:0" color="255,154,210" edges="295298101#0 295298101#1 131700456#0 131700456#1 23265254#0 23265254#1 23265254#2 23265254#3 23265254#4 23265254#5 23265254#6 23265254#7 430045512#1" >
        <stop busStop="1953905311" duration="20" until="92.0"/> <!-- Сквер Маршала Жукова -->
        <stop busStop="1390556611" duration="20" until="179.0"/> <!-- Проспект Маршала Жукова, 14 -->
        <stop busStop="1390556630" duration="20" until="276.0"/> <!-- Метро «Народное Ополчение» -->
        <stop busStop="4730949125" duration="20" until="333.0"/> <!-- Метро «Народное Ополчение» -->
    </route>
    <route id="pt_bus_390:1" color="255,154,210" edges="902481333#0 902481333#2 184849822#1 184849822#2 184849822#3 184849822#4 184849822#5 184849822#6 184849822#7 184849822#8 184849822#9 184849822#10 184849822#11 184849822#12 184849822#13 1272473362 157600515#0 157600515#1" >
        <stop busStop="1953905283" duration="20" until="47.0"/> <!-- Метро «Народное Ополчение» -->
        <stop busStop="1953905349" duration="20" until="118.0"/> <!-- Улица Демьяна Бедного -->
        <stop busStop="1953905353" duration="20" until="183.0"/> <!-- Проспект Маршала Жукова, 14 -->
        <stop busStop="1953905318" duration="20" until="251.0"/> <!-- Сквер Маршала Жукова -->
        <stop busStop="4730949154" duration="20" until="403.0"/> <!-- МЦК «Хорошёво» -->
    </route>
    <route id="pt_bus_391:0" color="255,154,210" edges="295298101#0 295298101#1 265663227 -295298104#1 -295298104#0 -1272473364#2 -1272473364#1 -1272473364#0 -157600569#1 -157600569#0 157600567#0 157600567#1 157600565#0 157600565#1 296577703#1 169368044#0 169368044#1 252110509#0 252110509#1 252110509#2 252110509#3 252110509#3-AddedOffRampEdge 296577702 30735491 1241633682" >
        <stop busStop="-1449161206" duration="20" until="66.0"/> <!-- Улица Мнёвники, 4 -->
        <stop busStop="1456333357" duration="20" until="146.0"/> <!-- МЖК «Атом» -->
        <stop busStop="612522387" duration="20" until="194.0"/> <!-- Поликлиника -->
    </route>
    <route id="pt_bus_391:1" color="255,154,210" edges="430045516 264292226 264292208 88607524 84516980 497960128 157600569#0 157600569#1 1272473364#0 1272473364#1 1272473364#2 295298104#0 295298104#1 23242835 157600515#0 157600515#1" >
        <stop busStop="2699824215" duration="20" until="50.0"/> <!-- Поликлиника -->
        <stop busStop="981969019" duration="20" until="142.0"/> <!-- Улица Мнёвники, 4 -->
        <stop busStop="4730949154" duration="20" until="233.0"/> <!-- МЦК «Хорошёво» -->
    </route>
    <route id="pt_bus_403:0" color="194,230,255" edges="430045516 264292226 264292208 88607524 84516980 497960128 157600569#0 157600569#1 1272473364#0 1272473364#1 1272473364#2 295298104#0 295298104#1 23242835 157600515#0 157600515#1" >
        <stop busStop="2699824215" duration="20" until="52.0"/> <!-- Поликлиника -->
        <stop busStop="981969019" duration="20" until="144.0"/> <!-- Улица Мнёвники, 4 -->
        <stop busStop="4730949154" duration="20" until="319.0"/> <!-- МЦК «Хорошёво» -->
    </route>
    <route id="pt_bus_403:1" color="194,230,255" edges="295298101#0 295298101#1 265663227 -295298104#1 -295298104#0 -1272473364#2 -1272473364#1 -1272473364#0 -157600569#1 -157600569#0 157600567#0 157600567#1 157600565#0 157600565#1 296577703#1 169368044#0 169368044#1 252110509#0 252110509#1 252110509#2 252110509#3 252110509#3-AddedOffRampEdge 296577702 30735491 1241633682" >
        <stop busStop="-1449161206" duration="20" until="98.0"/> <!-- Улица Мнёвники, 4 -->
        <stop busStop="1456333357" duration="20" until="180.0"/> <!-- МЖК «Атом» -->
        <stop busStop="612522387" duration="20" until="227.0"/> <!-- Поликлиника -->
    </route>
    <route id="pt_bus_48:0" color="194,230,255" edges="1272473366 157600591#1 432750249#0 432750249#1 432750249#2 432750249#4 1272473359 131700470#0 131700470#1 497960128 157600569#0 157600569#1 1272473364#0 1272473364#1 1272473364#2 295298104#0 295298104#1 23242835 157600515#0 157600515#1" >
        <stop busStop="12997959838" duration="20" until="39.0"/> <!-- Улица Мнёвники -->
        <stop busStop="981969019" duration="20" until="113.0"/> <!-- Улица Мнёвники, 4 -->
        <stop busStop="4730949154" duration="20" until="205.0"/> <!-- МЦК «Хорошёво» -->
    </route>
    <route id="pt_bus_48:1" color="194,230,255" edges="295298101#0 295298101#1 265663227 -295298104#1 -295298104#0 -1272473364#2 -1272473364#1 -1272473364#0 -157600569#1 -157600569#0 157600567#0 157600567#1 157600565#0 157600565#1 296577703#1 169368040 131700469#0 131700469#1 -432750249#4 -432750249#2 -432750249#1 -432750249#0 -157600591#1 -1272473366" >
        <stop busStop="-1449161206" duration="20" until="65.0"/> <!-- Улица Мнёвники, 4 -->
        <stop busStop="-1123631408" duration="20" until="152.0"/> <!-- Улица Мнёвники -->
    </route>
    <route id="pt_bus_597:0" color="255,154,210" edges="902481333#0 902481333#2 184849822#1 184849822#2 184849822#3 184849822#4 184849822#5 184849822#6 184849822#7 184849822#8 184849822#9 184849822#10 184849822#11 184849822#12 184849822#13 1272473362 157600515#0 157600515#1" >
        <stop busStop="1953905283" duration="20" until="48.0"/> <!-- Метро «Народное Ополчение» -->
        <stop busStop="1953905349" duration="20" until="146.0"/> <!-- Улица Демьяна Бедного -->
        <stop busStop="1953905353" duration="20" until="210.0"/> <!-- Проспект Маршала Жукова, 14 -->
        <stop busStop="1953905318" duration="20" until="277.0"/> <!-- Сквер Маршала Жукова -->
        <stop busStop="4730949154" duration="20" until="440.0"/> <!-- МЦК «Хорошёво» -->
    </route>
    <route id="pt_bus_597:1" color="255,154,210" edges="295298101#0 295298101#1 131700456#0 131700456#1 23265254#0 23265254#1 23265254#2 23265254#3 23265254#4 23265254#5 23265254#6 23265254#7 430045512#1" >
        <stop busStop="1953905311" duration="20" until="74.0"/> <!-- Сквер Маршала Жукова -->
        <stop busStop="1390556611" duration="20" until="148.0"/> <!-- Проспект Маршала Жукова, 14 -->
        <stop busStop="1390556630" duration="20" until="259.0"/> <!-- Метро «Народное Ополчение» -->
        <stop busStop="4730949125" duration="20" until="314.0"/> <!-- Метро «Народное Ополчение» -->
    </route>
    <route id="pt_bus_800:0" color="255,154,210" edges="295298101#0 295298101#1 265663227 -295298104#1 -295298104#0 -1272473364#2 -1272473364#1 -1272473364#0 -157600569#1 -157600569#0 157600567#0 157600567#1 157600565#0 157600565#1 296577703#1 169368044#0 169368044#1 252110509#0 252110509#1 252110509#2 252110509#3 252110509#3-AddedOffRampEdge 296577702 964943667 78432206#0 78432206#1 78432206#2 78432206#3 395544026#0 430045512#1" >
        <stop busStop="-1449161206" duration="20" until="112.0"/> <!-- Улица Мнёвники, 4 -->
        <stop busStop="1456333357" duration="20" until="193.0"/> <!-- МЖК «Атом» -->
        <stop busStop="612522387" duration="20" until="240.0"/> <!-- Поликлиника -->
        <stop busStop="1390556630" duration="20" until="320.0"/> <!-- Метро «Народное Ополчение» -->
        <stop busStop="4730949125" duration="20" until="375.0"/> <!-- Метро «Народное Ополчение» -->
    </route>
    <route id="pt_bus_800:1" color="255,154,210" edges="430045516 264292226 264292208 88607524 84516980 497960128 157600569#0 157600569#1 1272473364#0 1272473364#1 1272473364#2 295298104#0 295298104#1 23242835 157600515#0 157600515#1" >
        <stop busStop="2699824215" duration="20" until="56.0"/> <!-- Поликлиника -->
        <stop busStop="981969019" duration="20" until="147.0"/> <!-- Улица Мнёвники, 4 -->
        <stop busStop="4730949154" duration="20" until="279.0"/> <!-- МЦК «Хорошёво» -->
    </route>
    <route id="pt_bus_м35:0" color="64,183,129" edges="902481333#0 902481333#2 184849822#1 184849822#2 184849822#3 184849822#4 184849822#5 184849822#6 184849822#7 184849822#8 184849822#9 184849822#10 184849822#11 184849822#12 184849822#13 1272473362 157600515#0 157600515#1" >
        <stop busStop="1953905283" duration="20" until="49.0"/> <!-- Метро «Народное Ополчение» -->
        <stop busStop="1953905349" duration="20" until="142.0"/> <!-- Улица Демьяна Бедного -->
        <stop busStop="1953905353" duration="20" until="202.0"/> <!-- Проспект Маршала Жукова, 14 -->
        <stop busStop="1953905318" duration="20" until="268.0"/> <!-- Сквер Маршала Жукова -->
        <stop busStop="4730949154" duration="20" until="375.0"/> <!-- МЦК «Хорошёво» -->
    </route>
    <route id="pt_bus_м35:1" color="64,183,129" edges="295298101#0 295298101#1 131700456#0 131700456#1 23265254#0 23265254#1 23265254#2 23265254#3 23265254#4 23265254#5 23265254#6 23265254#7 430045512#1" >
        <stop busStop="1953905311" duration="20" until="75.0"/> <!-- Сквер Маршала Жукова -->
        <stop busStop="1390556611" duration="20" until="149.0"/> <!-- Проспект Маршала Жукова, 14 -->
        <stop busStop="1390556630" duration="20" until="238.0"/> <!-- Метро «Народное Ополчение» -->
        <stop busStop="4730949125" duration="20" until="293.0"/> <!-- Метро «Народное Ополчение» -->
    </route>
    <route id="pt_bus_м3:0" color="2,127,255" edges="28053297#0 28053297#1 46974418 252110509#0 252110509#1 252110509#2 252110509#3 252110509#3-AddedOffRampEdge 296577702 30735491 1241633682" >
        <stop busStop="6242129325" duration="20" until="60.0"/> <!-- Улица Мнёвники -->
        <stop busStop="1456333357" duration="20" until="465.0"/> <!-- МЖК «Атом» -->
        <stop busStop="612522387" duration="20" until="515.0"/> <!-- Поликлиника -->
    </route>
    <route id="pt_bus_м3:1" color="2,127,255" edges="430045516 264292226 594899548 594899548-AddedOffRampEdge 23396772#0 23396772#1 28053288#1 594899552" >
        <stop busStop="6242129323" duration="20" until="34.0"/> <!-- Поликлиника №115 -->
        <stop busStop="6242129326" duration="20" until="101.0"/> <!-- Улица Мнёвники -->
    </route>
    <route id="pt_bus_м3а:0" color="2,127,255" edges="430045516 264292226 594899548 594899548-AddedOffRampEdge 23396772#0 23396772#1 28053288#1 594899552" >
        <stop busStop="6242129323" duration="20" until="35.0"/> <!-- Поликлиника №115 -->
        <stop busStop="6242129326" duration="20" until="103.0"/> <!-- Улица Мнёвники -->
    </route>
    <route id="pt_bus_м3а:1" color="2,127,255" edges="28053297#0 28053297#1 46974418 252110509#0 252110509#1 252110509#2 252110509#3 252110509#3-AddedOffRampEdge 296577702 30735491 1241633682" >
        <stop busStop="6242129325" duration="20" until="59.0"/> <!-- Улица Мнёвники -->
        <stop busStop="1456333357" duration="20" until="424.0"/> <!-- МЖК «Атом» -->
        <stop busStop="612522387" duration="20" until="472.0"/> <!-- Поликлиника -->
    </route>
    <route id="pt_bus_с339:0" color="255,154,210" edges="-154204353" >
        <stop busStop="-10799104370" duration="20" until="44.0"/> <!-- 3-я Хорошёвская улица -->
        <stop busStop="-10799104367" duration="20" until="103.0"/> <!-- Новохорошёвский проезд -->
        <stop busStop="-10799104373" duration="20" until="164.0"/> <!-- Институт «Гипросвязь» -->
        <stop busStop="-10799104385" duration="20" until="232.0"/> <!-- ТЭЦ-16 -->
    </route>
    <route id="pt_bus_с339:1" color="255,154,210" edges="154204353 1272473361 157600515#0 157600515#1" >
        <stop busStop="10799104384" duration="20" until="48.0"/> <!-- ТЭЦ-16 -->
        <stop busStop="10799104374" duration="20" until="115.0"/> <!-- Институт «Гипросвязь» -->
        <stop busStop="10799104369" duration="20" until="172.0"/> <!-- Новохорошёвский проезд -->
        <stop busStop="10799104372" duration="20" until="232.0"/> <!-- 3-я Хорошёвская улица -->
        <stop busStop="4730949154" duration="20" until="426.0"/> <!-- МЦК «Хорошёво» -->
    </route>
    <route id="pt_bus_т21:0" color="194,230,255" edges="902481333#0 902481333#2 184849822#1 184849822#2 184849822#3 184849822#4 184849822#5 184849822#6 184849822#7 184849822#8 184849822#9 184849822#10 184849822#11 184849822#12 184849822#13 1272473362 157600515#0 157600515#1" >
        <stop busStop="1953905283" duration="20" until="49.0"/> <!-- Метро «Народное Ополчение» -->
        <stop busStop="1953905349" duration="20" until="140.0"/> <!-- Улица Демьяна Бедного -->
        <stop busStop="1953905353" duration="20" until="205.0"/> <!-- Проспект Маршала Жукова, 14 -->
        <stop busStop="1953905318" duration="20" until="272.0"/> <!-- Сквер Маршала Жукова -->
        <stop busStop="4730949154" duration="20" until="378.0"/> <!-- МЦК «Хорошёво» -->
    </route>
    <route id="pt_bus_т21:1" color="194,230,255" edges="295298101#0 295298101#1 131700456#0 131700456#1 23265254#0 23265254#1 23265254#2 23265254#3 23265254#4 23265254#5 23265254#6 23265254#7 430045512#1" >
        <stop busStop="1953905311" duration="20" until="74.0"/> <!-- Сквер Маршала Жукова -->
        <stop busStop="1390556611" duration="20" until="147.0"/> <!-- Проспект Маршала Жукова, 14 -->
        <stop busStop="1390556630" duration="20" until="230.0"/> <!-- Метро «Народное Ополчение» -->
        <stop busStop="4730949125" duration="20" until="285.0"/> <!-- Метро «Народное Ополчение» -->
    </route>
    <route id="pt_bus_т65:0" color="194,230,255" edges="902481333#0 902481333#2 184849822#1 184849822#2 184849822#3 184849822#4 184849822#5 184849822#6 184849822#7 184849822#8 184849822#9 184849822#10 184849822#11 184849822#12 184849822#13 1272473362 157600515#0 157600515#1" >
        <stop busStop="1953905283" duration="20" until="59.0"/> <!-- Метро «Народное Ополчение» -->
        <stop busStop="1953905349" duration="20" until="155.0"/> <!-- Улица Демьяна Бедного -->
        <stop busStop="1953905353" duration="20" until="212.0"/> <!-- Проспект Маршала Жукова, 14 -->
        <stop busStop="1953905318" duration="20" until="281.0"/> <!-- Сквер Маршала Жукова -->
        <stop busStop="4730949154" duration="20" until="447.0"/> <!-- МЦК «Хорошёво» -->
    </route>
    <route id="pt_bus_т65:1" color="194,230,255" edges="295298101#0 295298101#1 131700456#0 131700456#1 23265254#0 23265254#1 23265254#2 23265254#3 23265254#4 23265254#5 23265254#6 23265254#7 430045512#1" >
        <stop busStop="1953905311" duration="20" until="93.0"/> <!-- Сквер Маршала Жукова -->
        <stop busStop="1390556611" duration="20" until="167.0"/> <!-- Проспект Маршала Жукова, 14 -->
        <stop busStop="1390556630" duration="20" until="278.0"/> <!-- Метро «Народное Ополчение» -->
        <stop busStop="4730949125" duration="20" until="334.0"/> <!-- Метро «Народное Ополчение» -->
    </route>
    <route id="pt_bus_т86:0" color="255,154,210" edges="902481333#0 902481333#2 184849822#1 184849822#2 184849822#3 184849822#4 184849822#5 184849822#6 184849822#7 184849822#8 184849822#9 184849822#10 184849822#11 184849822#12 184849822#13 1272473362 157600515#0 157600515#1" >
        <stop busStop="1953905283" duration="20" until="89.0"/> <!-- Метро «Народное Ополчение» -->
        <stop busStop="1953905349" duration="20" until="186.0"/> <!-- Улица Демьяна Бедного -->
        <stop busStop="1953905353" duration="20" until="242.0"/> <!-- Проспект Маршала Жукова, 14 -->
        <stop busStop="1953905318" duration="20" until="309.0"/> <!-- Сквер Маршала Жукова -->
        <stop busStop="4730949154" duration="20" until="479.0"/> <!-- МЦК «Хорошёво» -->
    </route>
    <route id="pt_bus_т86:1" color="255,154,210" edges="295298101#0 295298101#1 131700456#0 131700456#1 23265254#0 23265254#1 23265254#2 23265254#3 23265254#4 23265254#5 23265254#6 23265254#7 430045512#1" >
        <stop busStop="1953905311" duration="20" until="78.0"/> <!-- Сквер Маршала Жукова -->
        <stop busStop="1390556611" duration="20" until="163.0"/> <!-- Проспект Маршала Жукова, 14 -->
        <stop busStop="1390556630" duration="20" until="257.0"/> <!-- Метро «Народное Ополчение» -->
        <stop busStop="4730949125" duration="20" until="312.0"/> <!-- Метро «Народное Ополчение» -->
    </route>
    <route id="pt_bus_т86к:0" color="255,154,210" edges="902481333#0 902481333#2 184849822#1 184849822#2 184849822#3 184849822#4 184849822#5 184849822#6 184849822#7 184849822#8 184849822#9 184849822#10 184849822#11 184849822#12 184849822#13 1272473362 157600515#0 157600515#1" >
        <stop busStop="1953905283" duration="20" until="51.0"/> <!-- Метро «Народное Ополчение» -->
        <stop busStop="1953905349" duration="20" until="143.0"/> <!-- Улица Демьяна Бедного -->
        <stop busStop="1953905353" duration="20" until="196.0"/> <!-- Проспект Маршала Жукова, 14 -->
        <stop busStop="1953905318" duration="20" until="262.0"/> <!-- Сквер Маршала Жукова -->
        <stop busStop="4730949154" duration="20" until="362.0"/> <!-- МЦК «Хорошёво» -->
    </route>
    <flow id="pt_bus_48:1" type="pt_bus" route="pt_bus_48:1" begin="132.0" end="3732.0" period="600" line="48:1" >
        <param key="name" value="Автобус 48: 1-й Силикатный проезд =&gt; Живописная улица"/>
        <param key="completeness" value="0.05"/>
    </flow>
    <flow id="pt_bus_м35:0" type="pt_bus" route="pt_bus_м35:0" begin="133.0" end="3733.0" period="600" line="м35:0" >
        <param key="name" value="Автобус м35: Крылатское =&gt; Метро «Краснопресненская»"/>
        <param key="completeness" value="0.06"/>
    </flow>
    <flow id="pt_bus_м35:1" type="pt_bus" route="pt_bus_м35:1" begin="165.0" end="3765.0" period="600" line="м35:1" >
        <param key="name" value="Автобус м35: Метро «Краснопресненская» =&gt; Крылатское"/>
        <param key="completeness" value="0.05"/>
    </flow>
    <flow id="pt_bus_403:0" type="pt_bus" route="pt_bus_403:0" begin="227.0" end="3827.0" period="600" line="403:0" >
        <param key="name" value="Автобус 403: Карамышевская набережная =&gt; Прибрежный проезд"/>
        <param key="completeness" value="0.03"/>
    </flow>
    <flow id="pt_bus_403:1" type="pt_bus" route="pt_bus_403:1" begin="253.0" end="3853.0" period="600" line="403:1" >
        <param key="name" value="Автобус 403: Прибрежный проезд =&gt; Карамышевская набережная"/>
        <param key="completeness" value="0.04"/>
    </flow>
    <flow id="pt_bus_345:0" type="pt_bus" route="pt_bus_345:0" begin="303.0" end="3903.0" period="600" line="345:0" >
        <param key="name" value="Автобус 345: Белорусский вокзал =&gt; Проспект Маршала Жукова"/>
        <param key="completeness" value="0.07"/>
    </flow>
    <flow id="pt_bus_345:1" type="pt_bus" route="pt_bus_345:1" begin="321.0" end="3921.0" period="600" line="345:1" >
        <param key="name" value="Автобус 345: Проспект Маршала Жукова =&gt; Белорусский вокзал"/>
        <param key="completeness" value="0.08"/>
    </flow>
    <flow id="pt_bus_м3:0" type="pt_bus" route="pt_bus_м3:0" begin="326.0" end="3926.0" period="600" line="м3:0" >
        <param key="name" value="Автобус м3: Проспект Будёного =&gt; Серебрянный бор"/>
        <param key="completeness" value="0.03"/>
    </flow>
    <flow id="pt_bus_м3:1" type="pt_bus" route="pt_bus_м3:1" begin="331.0" end="3931.0" period="600" line="м3:1" >
        <param key="name" value="Автобус м3: Серебрянный Бор =&gt; Проспект Будённого"/>
        <param key="completeness" value="0.02"/>
    </flow>
    <flow id="pt_bus_т65:0" type="pt_bus" route="pt_bus_т65:0" begin="346.0" end="3946.0" period="600" line="т65:0" >
        <param key="name" value="Автобус т65: Серебряный Бор =&gt; Метро «Аэропорт»"/>
        <param key="completeness" value="0.10"/>
    </flow>
    <flow id="pt_bus_т86:0" type="pt_bus" route="pt_bus_т86:0" begin="353.0" end="3953.0" period="600" line="т86:0" >
        <param key="name" value="Автобус т86: Серебряный Бор =&gt; Метро «Сокол»"/>
        <param key="completeness" value="0.07"/>
    </flow>
    <flow id="pt_bus_т86:1" type="pt_bus" route="pt_bus_т86:1" begin="362.0" end="3962.0" period="600" line="т86:1" >
        <param key="name" value="Автобус т86: Метро «Сокол» =&gt; Серебряный Бор"/>
        <param key="completeness" value="0.08"/>
    </flow>
    <flow id="pt_bus_155:0" type="pt_bus" route="pt_bus_155:0" begin="371.0" end="3971.0" period="600" line="155:0" >
        <param key="name" value="Автобус 155: Метро «Филёвский парк» =&gt; Проспект Маршала Жукова"/>
        <param key="completeness" value="0.06"/>
    </flow>
    <flow id="pt_bus_155:1" type="pt_bus" route="pt_bus_155:1" begin="383.0" end="3983.0" period="600" line="155:1" >
        <param key="name" value="Автобус 155: Проспект Маршала Жукова =&gt; Метро «Филёвский парк»"/>
        <param key="completeness" value="0.07"/>
    </flow>
    <flow id="pt_bus_391:0" type="pt_bus" route="pt_bus_391:0" begin="389.0" end="3989.0" period="600" line="391:0" >
        <param key="name" value="Автобус 391: Метро «Полежаевская» =&gt; Метро «Молодёжная»"/>
        <param key="completeness" value="0.10"/>
    </flow>
    <flow id="pt_bus_391:1" type="pt_bus" route="pt_bus_391:1" begin="406.0" end="4006.0" period="600" line="391:1" >
        <param key="name" value="Автобус 391: Метро «Молодёжная» =&gt; Метро «Полежаевская»"/>
        <param key="completeness" value="0.09"/>
    </flow>
    <flow id="pt_bus_800:0" type="pt_bus" route="pt_bus_800:0" begin="418.0" end="4018.0" period="600" line="800:0" >
        <param key="name" value="Автобус 800: Метро «Полежаевская» =&gt; Щукино"/>
        <param key="completeness" value="0.08"/>
    </flow>
    <flow id="pt_bus_800:1" type="pt_bus" route="pt_bus_800:1" begin="437.0" end="4037.0" period="600" line="800:1" >
        <param key="name" value="Автобус 800: Щукино =&gt; Метро «Полежаевская»"/>
        <param key="completeness" value="0.05"/>
    </flow>
    <flow id="pt_bus_294:0" type="pt_bus" route="pt_bus_294:0" begin="15.0" end="3615.0" period="600" line="294:0" >
        <param key="name" value="Автобус 294: МФЦ «Хорошёво-Мнёвники» =&gt; 1-й Силикатный проезд"/>
        <param key="completeness" value="0.06"/>
    </flow>
    <flow id="pt_bus_с339:0" type="pt_bus" route="pt_bus_с339:0" begin="441.0" end="4041.0" period="600" line="с339:0" >
        <param key="name" value="Автобус с339: Метро «Полежаевская» =&gt; Улица Расплетина"/>
        <param key="completeness" value="0.10"/>
    </flow>
    <flow id="pt_bus_с339:1" type="pt_bus" route="pt_bus_с339:1" begin="483.0" end="4083.0" period="600" line="с339:1" >
        <param key="name" value="Автобус с339: Улица Расплетина =&gt; Метро «Полежаевская»"/>
        <param key="completeness" value="0.12"/>
    </flow>
    <flow id="pt_bus_294:1" type="pt_bus" route="pt_bus_294:1" begin="484.0" end="4084.0" period="600" line="294:1" >