<?xml version="1.0" encoding="UTF-8"?>

<!-- generated on 2026-05-24T19:42:15.129706+03:00 by Eclipse SUMO netedit v1_26_0+1000-c71e510aa5d
-->

<additional xmlns:xsi="http://www.w3.org/2001/XMLSchema-instance" xsi:noNamespaceSchemaLocation="http://sumo.dlr.de/xsd/additional_file.xsd">
</additional>
