<<<<<<< HEAD
<?xml version="1.0" encoding="UTF-8"?>

<!-- generated on 2026-05-28T10:01:55.256663+03:00 by Eclipse SUMO netedit 1.26.0
-->

<routes xmlns:xsi="http://www.w3.org/2001/XMLSchema-instance" xsi:noNamespaceSchemaLocation="http://sumo.dlr.de/xsd/routes_file.xsd">
    <!-- VTypes -->
    <vType id="DEFAULT_VEHTYPE" vClass="bus"/>
    <!-- Vehicles, persons and containers (sorted by depart) -->
    <flow id="bus_155" begin="0.00" end="3600.00" probability="0.0050000000000000001" departLane="0" departPos="5.83" color="red" line="155" from="-E2" to="430045512#0" via="E0 23265254#1">
        <stop busStop="bs_3" duration="8.00" line="800"/>
        <stop busStop="bs_1" duration="8.00" line="800"/>
        <stop busStop="1390556611" duration="8.00" line="800"/>
        <stop busStop="1390556630" duration="8.00" line="800"/>
        <stop busStop="4730949125" duration="8.00" line="800"/>
    </flow>
    <flow id="bus_294" begin="0.00" end="3600.00" probability="0.0050000000000000001" departLane="0" departPos="0.00" color="white" line="294" from="30735492.83" to="-E20" via="264292224 88607524 497960128 295298104#0">
        <stop busStop="2699824215" duration="8.00"/>
        <stop busStop="981969019" duration="8.00"/>
        <stop busStop="bs_0" duration="8.00"/>
    </flow>
    <flow id="bus_322" begin="0.00" end="3600.00" probability="0.0050000000000000001" departLane="0" departPos="5.46" color="cyan" line="322" from="-E2" to="-1272473366" via="169368040 131700469#1 -432750249#1">
        <stop busStop="bs_3" duration="8.00" line="800"/>
        <stop busStop="-1449161206" duration="8.00" line="800"/>
        <stop busStop="-1123631408" duration="8.00" line="800"/>
        <stop busStop="12997959838" duration="8.00" line="800" friendlyPos="1"/>
        <stop busStop="981969019" duration="8.00" line="800" friendlyPos="1"/>
        <stop busStop="bs_0" duration="8.00" line="800" friendlyPos="1"/>
    </flow>
    <flow id="bus_339" begin="0.00" end="3600.00" probability="0.0050000000000000001" color="red" line="339" from="154204353.882" to="-E20">
        <stop busStop="10799104372" duration="60.00"/>
        <stop busStop="bs_0" duration="60.00"/>
    </flow>
    <flow id="bus_391" begin="0.00" end="3600.00" probability="0.0050000000000000001" departLane="0" departPos="5.19" color="green" line="391" from="-E2" to="1241633682" via="-295298104#0 169368044">
        <stop busStop="bs_3" duration="8.00" line="800"/>
        <stop busStop="-1449161206" duration="8.00" line="800"/>
        <stop busStop="1456333357" duration="8.00" line="800"/>
        <stop busStop="612522387" duration="8.00" line="800"/>
    </flow>
    <flow id="bus_391_1" begin="0.00" end="3600.00" probability="0.01000000000000000021" color="blue" line="391" from="430045516" to="-E20" via="264292208 88607524"/>
    <flow id="bus_48" begin="0.00" end="3600.00" probability="0.0050000000000000001" departLane="0" departPos="4.99" line="48" from="-E2" to="-E20" via="-295298104#1 -295298104#0 157600567#0 157600565#1 169368040 131700469#0 1272473359 131700470#0 497960128 295298104#0">
        <stop busStop="bs_3" duration="8.00" line="800"/>
        <stop busStop="-1449161206" duration="8.00" line="800"/>
        <stop busStop="-1123631408" duration="8.00" line="800"/>
        <stop busStop="12997959838" duration="8.00" line="800"/>
        <stop busStop="981969019" duration="8.00" line="800"/>
        <stop busStop="bs_0" duration="8.00" line="800"/>
    </flow>
    <flow id="bus_800" begin="0.00" end="3600.00" probability="0.0050000000000000001" departLane="0" departPos="4.85" color="green" line="800" from="-E2" to="430045512#0" via="-295298104#0 157600565#0 252110509#3 78432206#0 395544026#0">
        <stop busStop="bs_3" duration="8.00" line="800"/>
        <stop busStop="-1449161206" duration="8.00" line="800"/>
        <stop busStop="1456333357" duration="8.00" line="800"/>
        <stop busStop="612522387" duration="8.00" line="800"/>
        <stop busStop="1390556630" duration="8.00" line="800"/>
        <stop busStop="4730949125" duration="8.00" line="800"/>
    </flow>
    <flow id="bus_800_1" begin="0.00" end="3600.00" probability="0.0050000000000000001" color="red" line="800" from="430045516" to="-E20" via="264292208"/>
    <flow id="bus_c339" begin="0.00" end="3600.00" probability="0.0050000000000000001" departLane="0" departPos="8.67" color="magenta" line="339" from="-E2" to="-154204353">
        <stop busStop="bs_3" duration="8.00" line="800" friendlyPos="1"/>
        <stop busStop="-10799104370" duration="8.00" line="800" friendlyPos="1"/>
        <stop busStop="-10799104370" duration="60.00" speed="16.67"/>
    </flow>
    <flow id="bus_m3" begin="0.00" end="3600.00" probability="0.0050000000000000001" color="blue" line="3" from="28053297#0" to="1241633682">
        <stop busStop="6242129325" duration="8.00"/>
        <stop busStop="1456333357" duration="8.00"/>
        <stop busStop="612522387" duration="8.00"/>
    </flow>
</routes>
=======
<?xml version="1.0" encoding="UTF-8"?>

<!-- generated on 2026-05-29T14:42:53.412978+03:00 by Eclipse SUMO netedit v1_26_0+1000-c71e510aa5d
-->

<routes xmlns:xsi="http://www.w3.org/2001/XMLSchema-instance" xsi:noNamespaceSchemaLocation="http://sumo.dlr.de/xsd/routes_file.xsd">
    <!-- VTypes -->
    <vType id="DEFAULT_TAXITYPE"/>
    <vType id="DEFAULT_VEHTYPE" vClass="bus" color="magenta" laneChangeModel="LC2013"/>
    <!-- Vehicles, persons and containers (sorted by depart) -->
    <trip id="car_flow_2" type="DEFAULT_TAXITYPE" depart="0.00" departLane="2" color="green" from="430045516" to="594899552"/>
    <flow id="bus_155" begin="0.00" end="3600.00" probability="0.0050000000000000001" departLane="0" departPos="0.00" color="red" line="155" from="-E2" to="430045512#0" via="E0 23265254#1">
        <stop busStop="bs_3" duration="8.00" line="800"/>
        <stop busStop="bs_1" duration="8.00" line="800"/>
        <stop busStop="1390556630" duration="8.00" line="800"/>
        <stop busStop="4730949125" duration="8.00" line="800"/>
        <stop busStop="1390556611" duration="8.00" line="800" friendlyPos="1"/>
    </flow>
    <flow id="bus_294" begin="0.00" end="3600.00" probability="0.0050000000000000001" departLane="0" departPos="0.00" color="white" line="294" from="30735492.83" to="-E20" via="264292224 88607524 497960128 295298104#0">
        <stop busStop="2699824215" duration="8.00"/>
        <stop busStop="981969019" duration="8.00"/>
        <stop busStop="bs_0" duration="8.00"/>
    </flow>
    <flow id="bus_322" begin="0.00" end="3600.00" probability="0.0050000000000000001" departLane="0" departPos="0.00" color="cyan" line="322" from="-E2" to="-1272473366" via="169368040 131700469#1 -432750249#1">
        <stop busStop="bs_3" duration="8.00" line="800"/>
        <stop busStop="-1449161206" duration="8.00" line="800"/>
        <stop busStop="-1123631408" duration="8.00" line="800"/>
        <stop busStop="12997959838" duration="8.00" line="800" friendlyPos="1"/>
        <stop busStop="981969019" duration="8.00" line="800" friendlyPos="1"/>
        <stop busStop="bs_0" duration="8.00" line="800" friendlyPos="1"/>
    </flow>
    <flow id="bus_339" begin="0.00" end="3600.00" probability="0.0050000000000000001" departLane="2" color="red" line="339" from="154204353.882" to="-E20">
        <stop busStop="10799104372" duration="60.00"/>
        <stop busStop="bs_0" duration="60.00"/>
    </flow>
    <flow id="bus_391" begin="0.00" end="3600.00" probability="0.0050000000000000001" departLane="3" departPos="0.00" line="391" from="-E2" to="1241633682" via="-295298104#1 -295298104#0 -1272473364#2 -1272473364#1 -157600569#0 157600567#1 157600565#1 252110509#2 252110509#3 252110509#3-AddedOffRampEdge 296577702">
        <stop busStop="bs_3" duration="60.00"/>
        <stop busStop="-1449161206" duration="60.00"/>
        <stop busStop="1456333357" duration="60.00"/>
        <stop busStop="612522387" duration="60.00"/>
    </flow>
    <flow id="bus_391_1" begin="0.00" end="3600.00" probability="0.01000000000000000021" color="blue" line="391" from="430045516" to="-E20" via="264292208 88607524"/>
    <flow id="bus_48" begin="0.00" end="3600.00" probability="0.0050000000000000001" departLane="1" departPos="0.00" line="48" from="-E2" to="-E20" via="-295298104#1 -295298104#0 157600567#0 157600565#1 169368040 131700469#0 1272473359 131700470#0 497960128 295298104#0">
        <stop busStop="bs_3" duration="8.00" line="800"/>
        <stop busStop="-1449161206" duration="8.00" line="800"/>
        <stop busStop="-1123631408" duration="8.00" line="800"/>
        <stop busStop="12997959838" duration="8.00" line="800" friendlyPos="1"/>
        <stop busStop="981969019" duration="8.00" line="800"/>
        <stop busStop="bs_0" duration="8.00" line="800"/>
    </flow>
    <flow id="bus_800" begin="0.00" end="3600.00" probability="0.0050000000000000001" departLane="2" departPos="0.00" color="green" line="800" from="-E2" to="430045512#0" via="-295298104#0 157600565#0 252110509#3 78432206#0 395544026#0">
        <stop busStop="bs_3" duration="8.00" line="800"/>
        <stop busStop="-1449161206" duration="8.00" line="800"/>
        <stop busStop="1456333357" duration="8.00" line="800"/>
        <stop busStop="612522387" duration="8.00" line="800"/>
        <stop busStop="1390556630" duration="8.00" line="800"/>
        <stop busStop="4730949125" duration="8.00" line="800"/>
    </flow>
    <flow id="bus_800_1" begin="0.00" end="3600.00" probability="0.0050000000000000001" color="red" line="800" from="430045516" to="-E20" via="264292208"/>
    <flow id="bus_m3" begin="0.00" end="3600.00" probability="0.0050000000000000001" departLane="2" color="blue" line="3" from="28053297#0" to="1241633682">
        <stop busStop="6242129325" duration="8.00"/>
        <stop busStop="1456333357" duration="8.00"/>
        <stop busStop="612522387" duration="8.00"/>
    </flow>
    <flow id="car_flow_4" type="DEFAULT_TAXITYPE" begin="0.00" end="3600.00" probability="0.01000000000000000021" departLane="0" color="blue" from="154204353.882" to="1241633682" via="169368040 28053297#1 46974418"/>
    <flow id="car_flow_5" type="DEFAULT_TAXITYPE" begin="0.00" end="3600.00" probability="0.01000000000000000021" departLane="0" color="194,0,255" from="28053297#0" to="-1272473366"/>
    <flow id="car_flow_6" type="DEFAULT_TAXITYPE" begin="0.00" end="3600.00" probability="0.10000000000000000555" departLane="1" color="128,0,0" from="30735492.83" to="-E20" via="264292224 264292208 88607524 497960128 295298104#1"/>
    <flow id="f_1" type="DEFAULT_TAXITYPE" begin="0.00" end="3600.00" probability="0.01000000000000000021" departLane="1" color="white" from="28053297#0" to="1241633682" via="28053297#1 131700469#0 157600565#1 131700469#1 131700470#0 157600569#0 295298104#0 E0 -395544026#1"/>
</routes>
>>>>>>> 82744a08b22362240f6abef2a53a2a518ab366a8
