<?xml version="1.0" encoding="UTF-8"?>

<!-- generated on 2026-05-25T12:32:01.896935+03:00 by Eclipse SUMO netedit v1_26_0+1000-c71e510aa5d
-->

<routes xmlns:xsi="http://www.w3.org/2001/XMLSchema-instance" xsi:noNamespaceSchemaLocation="http://sumo.dlr.de/xsd/routes_file.xsd">
    <!-- Vehicles, persons and containers (sorted by depart) -->
    <trip id="t_0" depart="0.00" from="264292225" to="-131700468#5"/>
    <trip id="t_1" depart="0.00" from="264292225" to="-131700468#5"/>
    <trip id="t_2" depart="0.00" from="131700468#5" to="264292224"/>
    <trip id="t_3" depart="0.00" from="430045516" to="594899548"/>
    <trip id="t_4" depart="0.00" from="430045516" to="594899548"/>
    <trip id="t_5" depart="0.00" from="430045516" to="264292208"/>
    <trip id="t_6" depart="0.00" from="264292224" to="264292208"/>
    <trip id="t_7" depart="0.00" from="264292224" to="594899548"/>
    <trip id="t_8" depart="0.00" from="430045516" to="264292208"/>
</routes>
