<?xml version="1.0" encoding="UTF-8"?>

<!-- generated on 2026-05-29T14:59:47.254014+03:00 by Eclipse SUMO netedit 1.26.0
-->

<additional xmlns:xsi="http://www.w3.org/2001/XMLSchema-instance" xsi:noNamespaceSchemaLocation="http://sumo.dlr.de/xsd/additional_file.xsd">
</additional>
