<?xml version="1.0" encoding="UTF-8"?>

<!-- generated on 2026-05-03 12:57:03.794329 by Eclipse SUMO osmWebWizard.py v1_26_0+1000-c71e510aa5d
<configuration>
    <net-file value="/home/diaden/2026-05-03-12-56-33/osm.net.xml.gz"/>
    <output-trip-file value="/home/diaden/2026-05-03-12-56-33/osm.passenger.trips.xml"/>
    <route-file value="/home/diaden/2026-05-03-12-56-33/osm.passenger.rou.xml"/>
    <prefix value="veh"/>
    <trip-attributes value="departLane=&quot;best&quot;"/>
    <fringe-start-attributes value="departSpeed=&quot;max&quot;"/>
    <vehicle-class value="passenger"/>
    <lanes value="True"/>
    <fringe-factor value="5"/>
    <allow-fringe.min-length value="1000.0"/>
    <edge-permission value="passenger"/>
    <via-edge-types value="highway.motorway,highway.motorway_link,highway.trunk_link,highway.primary_link,highway.secondary_link,highway.tertiary_link"/>
    <min-distance value="300.0"/>
    <min-distance.fringe value="10.0"/>
    <remove-loops value="True"/>
    <insertion-density value="12.0"/>
</configuration>
-->

<routes xmlns:xsi="http://www.w3.org/2001/XMLSchema-instance" xsi:noNamespaceSchemaLocation="http://sumo.dlr.de/xsd/routes_file.xsd">
    <vType id="veh_passenger" vClass="passenger"/>
    <trip id="veh0" depart="0.00" from="30735492" to="264292226" departLane="best" type="veh_passenger" departSpeed="max"/>
    <trip id="veh1" depart="11.73" from="154204353" to="184849822#9" departLane="best" type="veh_passenger" departSpeed="max"/>
    <trip id="veh2" depart="23.47" from="295298101#0" to="23265254#6" departLane="best" type="veh_passenger" departSpeed="max"/>
    <trip id="veh3" depart="35.20" from="154204353" to="252110509#0" departLane="best" type="veh_passenger" departSpeed="max"/>
    <trip id="veh4" depart="46.94" from="430045516" to="28053288#1" departLane="best" type="veh_passenger" departSpeed="max"/>
    <trip id="veh5" depart="58.67" from="184849822#9" to="1241633682" departLane="best" type="veh_passenger"/>
    <trip id="veh6" depart="70.41" from="430045516" to="295298104#1" departLane="best" type="veh_passenger" departSpeed="max"/>
    <trip id="veh7" depart="82.14" from="264292226" to="84516980" departLane="best" type="veh_passenger"/>
    <trip id="veh8" depart="93.87" from="46974418" to="24744035" departLane="best" type="veh_passenger"/>
    <trip id="veh9" depart="105.61" from="23265254#5" to="1241633682" departLane="best" type="veh_passenger"/>
    <trip id="veh10" depart="117.34" from="295298101#0" to="252110509#1" departLane="best" type="veh_passenger" departSpeed="max"/>
    <trip id="veh11" depart="129.08" from="131700469#0" to="295298104#1" departLane="best" type="veh_passenger"/>
    <trip id="veh12" depart="140.81" from="131700468#3" to="157600515#1" departLane="best" type="veh_passenger"/>
    <trip id="veh13" depart="152.55" from="902481333#2" to="252110509#3" departLane="best" type="veh_passenger"/>
    <trip id="veh14" depart="164.28" from="184849822#4" to="1272473364#0" departLane="best" type="veh_passenger"/>
    <trip id="veh15" depart="176.01" from="28053297#0" to="1272473362" departLane="best" type="veh_passenger" departSpeed="max"/>
    <trip id="veh16" depart="187.75" from="964943667" to="184849822#9" departLane="best" type="veh_passenger"/>
    <trip id="veh17" depart="199.48" from="1272473361" to="252110509#2" departLane="best" type="veh_passenger"/>
    <trip id="veh18" depart="211.22" from="902481333#0" to="497960128" departLane="best" type="veh_passenger" departSpeed="max"/>
    <trip id="veh19" depart="222.95" from="295298101#1" to="23265254#5" departLane="best" type="veh_passenger"/>
    <trip id="veh20" depart="234.69" from="252110509#2" to="78432206#3" departLane="best" type="veh_passenger"/>
    <trip id="veh21" depart="246.42" from="184849822#12" to="252110509#3" departLane="best" type="veh_passenger"/>
    <trip id="veh22" depart="258.16" from="28053297#1" to="1241633682" departLane="best" type="veh_passenger"/>
    <trip id="veh23" depart="269.89" from="-1272473361" to="131700470#0" departLane="best" type="veh_passenger"/>
    <trip id="veh24" depart="281.62" from="-432750249#4" to="184849822#4" departLane="best" type="veh_passenger"/>
    <trip id="veh25" depart="293.36" from="-432750249#0" to="30735491" departLane="best" type="veh_passenger"/>
    <trip id="veh26" depart="305.09" from="252110509#0" to="1241633682" departLane="best" type="veh_passenger"/>
    <trip id="veh27" depart="316.83" from="154204353" to="131700469#0" departLane="best" type="veh_passenger" departSpeed="max"/>
    <trip id="veh28" depart="328.56" from="184849822#9" to="252110509#0" departLane="best" type="veh_passenger"/>
    <trip id="veh29" depart="340.30" from="-432750249#1" to="252110509#3" departLane="best" type="veh_passenger"/>
    <trip id="veh30" depart="352.03" from="154204353" to="1241633682" departLane="best" type="veh_passenger" departSpeed="max"/>
    <trip id="veh31" depart="363.76" from="252110509#3" to="430045512#0" departLane="best" type="veh_passenger"/>
    <trip id="veh32" depart="375.50" from="252110509#0" to="184849822#12" departLane="best" type="veh_passenger"/>
    <trip id="veh33" depart="387.23" from="902481333#0" to="-432750249#0" departLane="best" type="veh_passenger" departSpeed="max"/>
    <trip id="veh34" depart="398.97" from="252110509#0" to="1272473364#1" departLane="best" type="veh_passenger"/>
    <trip id="veh35" depart="410.70" from="252110509#2" to="157600567#1" departLane="best" type="veh_passenger"/>
    <trip id="veh36" depart="422.44" from="902481333#0" to="964943666" departLane="best" type="veh_passenger" departSpeed="max"/>
    <trip id="veh37" depart="434.17" from="902481333#0" to="24744035" departLane="best" type="veh_passenger" departSpeed="max"/>
    <trip id="veh38" depart="445.90" from="264292224" to="497960128" departLane="best" type="veh_passenger"/>
    <trip id="veh39" depart="457.64" from="-432750249#2" to="1241633682" departLane="best" type="veh_passenger"/>
    <trip id="veh40" depart="469.37" from="28053297#0" to="252110509#2" departLane="best" type="veh_passenger" departSpeed="max"/>
    <trip id="veh41" depart="481.11" from="264292226" to="594899552" departLane="best" type="veh_passenger"/>
    <trip id="veh42" depart="492.84" from="157600565#0" to="157600515#1" departLane="best" type="veh_passenger"/>
    <trip id="veh43" depart="504.58" from="184849822#4" to="296577703#1" departLane="best" type="veh_passenger"/>
    <trip id="veh44" depart="516.31" from="-432750249#1" to="184849822#10" departLane="best" type="veh_passenger"/>
    <trip id="veh45" depart="528.04" from="23265254#3" to="1241633682" departLane="best" type="veh_passenger"/>
    <trip id="veh46" depart="539.78" from="295298101#0" to="-1272473364#0" departLane="best" type="veh_passenger" departSpeed="max"/>
    <trip id="veh47" depart="551.51" from="296577703#1" to="1241633682" departLane="best" type="veh_passenger"/>
    <trip id="veh48" depart="563.25" from="252110509#0" to="1272473364#1" departLane="best" type="veh_passenger"/>
    <trip id="veh49" depart="574.98" from="30735492" to="23396772#0" departLane="best" type="veh_passenger" departSpeed="max"/>
    <trip id="veh50" depart="586.72" from="252110509#0" to="-1272473364#1" departLane="best" type="veh_passenger"/>
    <trip id="veh51" depart="598.45" from="430045516" to="497960128" departLane="best" type="veh_passenger" departSpeed="max"/>
    <trip id="veh52" depart="610.18" from="430045516" to="594899548-AddedOffRampEdge" departLane="best" type="veh_passenger" departSpeed="max"/>
    <trip id="veh53" depart="621.92" from="430045516" to="594899548-AddedOffRampEdge" departLane="best" type="veh_passenger" departSpeed="max"/>
    <trip id="veh54" depart="633.65" from="430045516" to="594899548" departLane="best" type="veh_passenger" departSpeed="max"/>
    <trip id="veh55" depart="645.39" from="430045516" to="1272473364#0" departLane="best" type="veh_passenger" departSpeed="max"/>
    <trip id="veh56" depart="657.12" from="430045516" to="1272473358#1" departLane="best" type="veh_passenger" departSpeed="max"/>
    <trip id="veh57" depart="668.86" from="902481333#0" to="1272473364#1" departLane="best" type="veh_passenger" departSpeed="max"/>
    <trip id="veh58" depart="680.59" from="902481333#0" to="1241633682" departLane="best" type="veh_passenger" departSpeed="max"/>
    <trip id="veh59" depart="692.33" from="902481333#0" to="1272473364#0" departLane="best" type="veh_passenger" departSpeed="max"/>
    <trip id="veh60" depart="704.06" from="28053297#0" to="23242835" departLane="best" type="veh_passenger" departSpeed="max"/>
    <trip id="veh61" depart="715.79" from="30735492" to="264292226" departLane="best" type="veh_passenger" departSpeed="max"/>
    <trip id="veh62" depart="727.53" from="295298101#0" to="131700470#1" departLane="best" type="veh_passenger" departSpeed="max"/>
    <trip id="veh63" depart="739.26" from="184849822#4" to="497960128" departLane="best" type="veh_passenger"/>
    <trip id="veh64" depart="751.00" from="184849822#3" to="157600565#0" departLane="best" type="veh_passenger"/>
    <trip id="veh65" depart="762.73" from="252110509#0" to="24744035" departLane="best" type="veh_passenger"/>
    <trip id="veh66" depart="774.47" from="295298101#0" to="184849822#11" departLane="best" type="veh_passenger" departSpeed="max"/>
    <trip id="veh67" depart="786.20" from="157600565#1" to="184849822#2" departLane="best" type="veh_passenger"/>
    <trip id="veh68" depart="797.93" from="295298101#0" to="-1272473364#0" departLane="best" type="veh_passenger" departSpeed="max"/>
    <trip id="veh69" depart="809.67" from="252110509#2" to="430045512#0" departLane="best" type="veh_passenger"/>
    <trip id="veh70" depart="821.40" from="28053297#0" to="78432206#1" departLane="best" type="veh_passenger" departSpeed="max"/>
    <trip id="veh71" depart="833.14" from="296577703#1" to="184849822#9" departLane="best" type="veh_passenger"/>
    <trip id="veh72" depart="844.87" from="430045516" to="23396772#0" departLane="best" type="veh_passenger" departSpeed="max"/>
    <trip id="veh73" depart="856.61" from="252110509#3" to="1272473362" departLane="best" type="veh_passenger"/>
    <trip id="veh74" depart="868.34" from="157600567#0" to="252110509#3" departLane="best" type="veh_passenger"/>
    <trip id="veh75" depart="880.07" from="-432750249#2" to="1272473364#2" departLane="best" type="veh_passenger"/>
    <trip id="veh76" depart="891.81" from="23265254#6" to="-1272473364#0" departLane="best" type="veh_passenger"/>
    <trip id="veh77" depart="903.54" from="23265254#0" to="296577703#1" departLane="best" type="veh_passenger"/>
    <trip id="veh78" depart="915.28" from="-157600569#1" to="157600515#1" departLane="best" type="veh_passenger"/>
    <trip id="veh79" depart="927.01" from="154204353" to="131700470#0" departLane="best" type="veh_passenger" departSpeed="max"/>
    <trip id="veh80" depart="938.75" from="395544026#0" to="157600515#1" departLane="best" type="veh_passenger"/>
    <trip id="veh81" depart="950.48" from="964943667" to="157600515#1" departLane="best" type="veh_passenger"/>
    <trip id="veh82" depart="962.21" from="295298101#0" to="395544026#0" departLane="best" type="veh_passenger" departSpeed="max"/>
    <trip id="veh83" depart="973.95" from="295298101#0" to="296577703#1" departLane="best" type="veh_passenger" departSpeed="max"/>
    <trip id="veh84" depart="985.68" from="902481333#0" to="1241633682" departLane="best" type="veh_passenger" departSpeed="max"/>
    <trip id="veh85" depart="997.42" from="-1272473366" to="1241633682" departLane="best" type="veh_passenger"/>
    <trip id="veh86" depart="1009.15" from="430045516" to="80523306" departLane="best" type="veh_passenger" departSpeed="max"/>
    <trip id="veh87" depart="1020.89" from="902481333#0" to="157600515#1" departLane="best" type="veh_passenger" departSpeed="max"/>
    <trip id="veh88" depart="1032.62" from="296577703#1" to="-157600569#0" departLane="best" type="veh_passenger"/>
    <trip id="veh89" depart="1044.35" from="430045516" to="157600515#0" departLane="best" type="veh_passenger" departSpeed="max"/>
    <trip id="veh90" depart="1056.09" from="252110509#0" to="157600515#1" departLane="best" type="veh_passenger"/>
    <trip id="veh91" depart="1067.82" from="264292225" to="157600515#0" departLane="best" type="veh_passenger" departSpeed="max"/>
    <trip id="veh92" depart="1079.56" from="295298101#0" to="432750249#2" departLane="best" type="veh_passenger" departSpeed="max"/>
    <trip id="veh93" depart="1091.29" from="296577702" to="157600569#0" departLane="best" type="veh_passenger"/>
    <trip id="veh94" depart="1103.03" from="252110509#0" to="295298104#1" departLane="best" type="veh_passenger"/>
    <trip id="veh95" depart="1114.76" from="154204353" to="430045512#0" departLane="best" type="veh_passenger" departSpeed="max"/>
    <trip id="veh96" depart="1126.50" from="296577702" to="1272473364#1" departLane="best" type="veh_passenger"/>
    <trip id="veh97" depart="1138.23" from="-1272473364#1" to="78432206#0" departLane="best" type="veh_passenger"/>
    <trip id="veh98" depart="1149.96" from="252110509#3-AddedOffRampEdge" to="430045512#0" departLane="best" type="veh_passenger"/>
    <trip id="veh99" depart="1161.70" from="28053297#0" to="184849822#2" departLane="best" type="veh_passenger" departSpeed="max"/>
    <trip id="veh100" depart="1173.43" from="296577702" to="1272473364#0" departLane="best" type="veh_passenger"/>
    <trip id="veh101" depart="1185.17" from="157600567#0" to="-78432206#0" departLane="best" type="veh_passenger"/>
    <trip id="veh102" depart="1196.90" from="252110509#3-AddedOffRampEdge" to="295298104#0" departLane="best" type="veh_passenger"/>
    <trip id="veh103" depart="1208.64" from="184849822#0" to="-432750249#0" departLane="best" type="veh_passenger"/>
    <trip id="veh104" depart="1220.37" from="131700469#1" to="-1272473364#2" departLane="best" type="veh_passenger"/>
    <trip id="veh105" depart="1232.10" from="264292226" to="1272473364#1" departLane="best" type="veh_passenger"/>
    <trip id="veh106" depart="1243.84" from="46974418" to="184849822#5" departLane="best" type="veh_passenger"/>
    <trip id="veh107" depart="1255.57" from="252110509#3" to="157600569#1" departLane="best" type="veh_passenger"/>
    <trip id="veh108" depart="1267.31" from="430045516" to="157600515#1" departLane="best" type="veh_passenger" departSpeed="max"/>
    <trip id="veh109" depart="1279.04" from="-432750249#1" to="252110509#3" departLane="best" type="veh_passenger"/>
    <trip id="veh110" depart="1290.78" from="-157600591#1" to="1241633682" departLane="best" type="veh_passenger"/>
    <trip id="veh111" depart="1302.51" from="902481333#2" to="-432750249#4" departLane="best" type="veh_passenger"/>
    <trip id="veh112" depart="1314.24" from="430045516" to="1272473358#1" departLane="best" type="veh_passenger" departSpeed="max"/>
    <trip id="veh113" depart="1325.98" from="252110509#1" to="497960128" departLane="best" type="veh_passenger"/>
    <trip id="veh114" depart="1337.71" from="295298101#0" to="252110509#1" departLane="best" type="veh_passenger" departSpeed="max"/>
    <trip id="veh115" depart="1349.45" from="154204353" to="1241633682" departLane="best" type="veh_passenger" departSpeed="max"/>
    <trip id="veh116" depart="1361.18" from="295298101#0" to="1241633682" departLane="best" type="veh_passenger" departSpeed="max"/>
    <trip id="veh117" depart="1372.92" from="131700469#0" to="-157600569#0" departLane="best" type="veh_passenger"/>
    <trip id="veh118" depart="1384.65" from="-1272473361" to="184849822#0" departLane="best" type="veh_passenger"/>
    <trip id="veh119" depart="1396.38" from="296577702" to="184849822#0" departLane="best" type="veh_passenger"/>
    <trip id="veh120" depart="1408.12" from="184849822#10" to="-78432206#1" departLane="best" type="veh_passenger"/>
    <trip id="veh121" depart="1419.85" from="252110509#3-AddedOffRampEdge" to="-157600569#1" departLane="best" type="veh_passenger"/>
    <trip id="veh122" depart="1431.59" from="184849822#5" to="1272473359" departLane="best" type="veh_passenger"/>
    <trip id="veh123" depart="1443.32" from="902481333#0" to="964943667" departLane="best" type="veh_passenger" departSpeed="max"/>
    <trip id="veh124" depart="1455.06" from="295298101#0" to="1272473364#0" departLane="best" type="veh_passenger" departSpeed="max"/>
    <trip id="veh125" depart="1466.79" from="-157600569#0" to="30735491" departLane="best" type="veh_passenger"/>
    <trip id="veh126" depart="1478.53" from="28053297#0" to="252110509#3" departLane="best" type="veh_passenger" departSpeed="max"/>
    <trip id="veh127" depart="1490.26" from="252110509#3-AddedOffRampEdge" to="-295298104#0" departLane="best" type="veh_passenger"/>
    <trip id="veh128" depart="1501.99" from="295298101#0" to="497960128" departLane="best" type="veh_passenger" departSpeed="max"/>
    <trip id="veh129" depart="1513.73" from="430045516" to="23396772#0" departLane="best" type="veh_passenger" departSpeed="max"/>
    <trip id="veh130" depart="1525.46" from="131700470#0" to="157600515#1" departLane="best" type="veh_passenger"/>
    <trip id="veh131" depart="1537.20" from="395544026#0" to="252110509#2" departLane="best" type="veh_passenger"/>
    <trip id="veh132" depart="1548.93" from="28053297#0" to="-295298104#1" departLane="best" type="veh_passenger" departSpeed="max"/>
    <trip id="veh133" depart="1560.67" from="252110509#2" to="-432750249#4" departLane="best" type="veh_passenger"/>
    <trip id="veh134" depart="1572.40" from="296577703#1" to="184849822#9" departLane="best" type="veh_passenger"/>
    <trip id="veh135" depart="1584.13" from="78432206#2" to="184849822#9" departLane="best" type="veh_passenger"/>
    <trip id="veh136" depart="1595.87" from="28053297#0" to="964943667" departLane="best" type="veh_passenger" departSpeed="max"/>
    <trip id="veh137" depart="1607.60" from="252110509#2" to="131700470#0" departLane="best" type="veh_passenger"/>
    <trip id="veh138" depart="1619.34" from="430045516" to="157600515#1" departLane="best" type="veh_passenger" departSpeed="max"/>
    <trip id="veh139" depart="1631.07" from="295298101#0" to="430045512#0" departLane="best" type="veh_passenger" departSpeed="max"/>
    <trip id="veh140" depart="1642.81" from="902481333#0" to="184849822#6" departLane="best" type="veh_passenger" departSpeed="max"/>
    <trip id="veh141" depart="1654.54" from="-154204353" to="184849822#7" departLane="best" type="veh_passenger"/>
    <trip id="veh142" depart="1666.27" from="295298101#0" to="1241633682" departLane="best" type="veh_passenger" departSpeed="max"/>
    <trip id="veh143" depart="1678.01" from="295298101#0" to="497960128" departLane="best" type="veh_passenger" departSpeed="max"/>
    <trip id="veh144" depart="1689.74" from="23265254#6" to="131700469#1" departLane="best" type="veh_passenger"/>
    <trip id="veh145" depart="1701.48" from="296577703#1" to="30735491" departLane="best" type="veh_passenger"/>
    <trip id="veh146" depart="1713.21" from="-432750249#0" to="252110509#3" departLane="best" type="veh_passenger"/>
    <trip id="veh147" depart="1724.95" from="30735492" to="157600569#0" departLane="best" type="veh_passenger" departSpeed="max"/>
    <trip id="veh148" depart="1736.68" from="-157600569#1" to="430045512#0" departLane="best" type="veh_passenger"/>
    <trip id="veh149" depart="1748.41" from="184849822#11" to="157600515#1" departLane="best" type="veh_passenger"/>
    <trip id="veh150" depart="1760.15" from="28053297#0" to="430045512#0" departLane="best" type="veh_passenger" departSpeed="max"/>
    <trip id="veh151" depart="1771.88" from="46974418" to="252110509#2" departLane="best" type="veh_passenger"/>
    <trip id="veh152" depart="1783.62" from="-1272473364#1" to="430045512#0" departLane="best" type="veh_passenger"/>
    <trip id="veh153" depart="1795.35" from="295298101#0" to="157600567#1" departLane="best" type="veh_passenger" departSpeed="max"/>
    <trip id="veh154" depart="1807.09" from="157600567#0" to="46974418" departLane="best" type="veh_passenger"/>
    <trip id="veh155" depart="1818.82" from="154204353" to="157600515#1" departLane="best" type="veh_passenger" departSpeed="max"/>
    <trip id="veh156" depart="1830.55" from="902481333#0" to="252110509#3-AddedOffRampEdge" departLane="best" type="veh_passenger" departSpeed="max"/>
    <trip id="veh157" depart="1842.29" from="295298101#1" to="296577702" departLane="best" type="veh_passenger"/>
    <trip id="veh158" depart="1854.02" from="-157600569#1" to="252110509#1" departLane="best" type="veh_passenger"/>
    <trip id="veh159" depart="1865.76" from="184849822#10" to="430045512#0" departLane="best" type="veh_passenger"/>
    <trip id="veh160" depart="1877.49" from="28053297#0" to="157600515#1" departLane="best" type="veh_passenger" departSpeed="max"/>
    <trip id="veh161" depart="1889.23" from="295298101#0" to="252110509#2" departLane="best" type="veh_passenger" departSpeed="max"/>
    <trip id="veh162" depart="1900.96" from="295298101#0" to="46974418" departLane="best" type="veh_passenger" departSpeed="max"/>
    <trip id="veh163" depart="1912.70" from="252110509#1" to="24744035" departLane="best" type="veh_passenger"/>
    <trip id="veh164" depart="1924.43" from="184849822#11" to="296577702" departLane="best" type="veh_passenger"/>
    <trip id="veh165" depart="1936.16" from="131700469#0" to="1241633682" departLane="best" type="veh_passenger"/>
    <trip id="veh166" depart="1947.90" from="264292226" to="594899552" departLane="best" type="veh_passenger"/>
    <trip id="veh167" depart="1959.63" from="184849822#9" to="-432750249#4" departLane="best" type="veh_passenger"/>
    <trip id="veh168" depart="1971.37" from="902481333#0" to="1241633682" departLane="best" type="veh_passenger" departSpeed="max"/>
    <trip id="veh169" depart="1983.10" from="902481333#0" to="497960128" departLane="best" type="veh_passenger" departSpeed="max"/>
    <trip id="veh170" depart="1994.84" from="23265254#3" to="430045512#0" departLane="best" type="veh_passenger"/>
    <trip id="veh171" depart="2006.57" from="430045516" to="594899552" departLane="best" type="veh_passenger" departSpeed="max"/>
    <trip id="veh172" depart="2018.30" from="-131700468#2" to="594899548-AddedOffRampEdge" departLane="best" type="veh_passenger"/>
    <trip id="veh173" depart="2030.04" from="430045516" to="594899552" departLane="best" type="veh_passenger" departSpeed="max"/>
    <trip id="veh174" depart="2041.77" from="184849822#12" to="157600565#0" departLane="best" type="veh_passenger"/>
    <trip id="veh175" depart="2053.51" from="295298101#0" to="296577702" departLane="best" type="veh_passenger" departSpeed="max"/>
    <trip id="veh176" depart="2065.24" from="902481333#0" to="157600567#0" departLane="best" type="veh_passenger" departSpeed="max"/>
    <trip id="veh177" depart="2076.98" from="252110509#3-AddedOffRampEdge" to="157600565#0" departLane="best" type="veh_passenger"/>
    <trip id="veh178" depart="2088.71" from="23265254#5" to="157600569#1" departLane="best" type="veh_passenger"/>
    <trip id="veh179" depart="2100.44" from="902481333#0" to="497960128" departLane="best" type="veh_passenger" departSpeed="max"/>
    <trip id="veh180" depart="2112.18" from="23265254#2" to="157600515#1" departLane="best" type="veh_passenger"/>
    <trip id="veh181" depart="2123.91" from="295298101#0" to="252110509#3" departLane="best" type="veh_passenger" departSpeed="max"/>
    <trip id="veh182" depart="2135.65" from="430045516" to="1272473358#1" departLane="best" type="veh_passenger" departSpeed="max"/>
    <trip id="veh183" depart="2147.38" from="-432750249#0" to="30735491" departLane="best" type="veh_passenger"/>
    <trip id="veh184" depart="2159.12" from="46974418" to="131700470#1" departLane="best" type="veh_passenger"/>
    <trip id="veh185" depart="2170.85" from="157600567#0" to="1241633682" departLane="best" type="veh_passenger"/>
    <trip id="veh186" depart="2182.58" from="-1272473364#2" to="430045512#0" departLane="best" type="veh_passenger"/>
    <trip id="veh187" depart="2194.32" from="430045516" to="23242835" departLane="best" type="veh_passenger" departSpeed="max"/>
    <trip id="veh188" depart="2206.05" from="430045516" to="594899548" departLane="best" type="veh_passenger" departSpeed="max"/>
    <trip id="veh189" depart="2217.79" from="252110509#3" to="157600515#1" departLane="best" type="veh_passenger"/>
    <trip id="veh190" depart="2229.52" from="295298101#1" to="184849822#5" departLane="best" type="veh_passenger"/>
    <trip id="veh191" depart="2241.26" from="-432750249#2" to="252110509#1" departLane="best" type="veh_passenger"/>
    <trip id="veh192" depart="2252.99" from="-432750249#0" to="1272473364#1" departLane="best" type="veh_passenger"/>
    <trip id="veh193" depart="2264.72" from="184849822#6" to="964943666" departLane="best" type="veh_passenger"/>
    <trip id="veh194" depart="2276.46" from="296577702" to="497960128" departLane="best" type="veh_passenger"/>
    <trip id="veh195" depart="2288.19" from="184849822#9" to="184849822#0" departLane="best" type="veh_passenger"/>
    <trip id="veh196" depart="2299.93" from="23265254#5" to="1241633682" departLane="best" type="veh_passenger"/>
    <trip id="veh197" depart="2311.66" from="430045516" to="23396772#0" departLane="best" type="veh_passenger" departSpeed="max"/>
    <trip id="veh198" depart="2323.40" from="184849822#6" to="-78432206#0" departLane="best" type="veh_passenger"/>
    <trip id="veh199" depart="2335.13" from="28053297#0" to="157600515#1" departLane="best" type="veh_passenger" departSpeed="max"/>
    <trip id="veh200" depart="2346.87" from="23265254#3" to="30735491" departLane="best" type="veh_passenger"/>
    <trip id="veh201" depart="2358.60" from="28053297#0" to="430045512#0" departLane="best" type="veh_passenger" departSpeed="max"/>
    <trip id="veh202" depart="2370.33" from="430045516" to="84516980" departLane="best" type="veh_passenger" departSpeed="max"/>
    <trip id="veh203" depart="2382.07" from="184849822#9" to="-1272473364#0" departLane="best" type="veh_passenger"/>
    <trip id="veh204" depart="2393.80" from="30735492" to="1272473358#0" departLane="best" type="veh_passenger" departSpeed="max"/>
    <trip id="veh205" depart="2405.54" from="430045516" to="23396772#1" departLane="best" type="veh_passenger" departSpeed="max"/>
    <trip id="veh206" depart="2417.27" from="131700456#0" to="252110509#2" departLane="best" type="veh_passenger"/>
    <trip id="veh207" depart="2429.01" from="295298101#0" to="1272473364#0" departLane="best" type="veh_passenger" departSpeed="max"/>
    <trip id="veh208" depart="2440.74" from="295298101#0" to="184849822#4" departLane="best" type="veh_passenger" departSpeed="max"/>
    <trip id="veh209" depart="2452.47" from="252110509#1" to="1272473364#1" departLane="best" type="veh_passenger"/>
    <trip id="veh210" depart="2464.21" from="395544026#0" to="-432750249#2" departLane="best" type="veh_passenger"/>
    <trip id="veh211" depart="2475.94" from="252110509#0" to="1272473364#2" departLane="best" type="veh_passenger"/>
    <trip id="veh212" depart="2487.68" from="295298101#1" to="184849822#4" departLane="best" type="veh_passenger"/>
    <trip id="veh213" depart="2499.41" from="154204353" to="1241633682" departLane="best" type="veh_passenger" departSpeed="max"/>
    <trip id="veh214" depart="2511.15" from="-1272473364#0" to="296577702" departLane="best" type="veh_passenger"/>
    <trip id="veh215" depart="2522.88" from="131700469#0" to="157600515#1" departLane="best" type="veh_passenger"/>
    <trip id="veh216" depart="2534.61" from="296577702" to="184849822#7" departLane="best" type="veh_passenger"/>
    <trip id="veh217" depart="2546.35" from="296577702" to="157600567#0" departLane="best" type="veh_passenger"/>
    <trip id="veh218" depart="2558.08" from="1272473361" to="-1272473366" departLane="best" type="veh_passenger"/>
    <trip id="veh219" depart="2569.82" from="184849822#5" to="430045512#0" departLane="best" type="veh_passenger"/>
    <trip id="veh220" depart="2581.55" from="78432206#1" to="-157600591#1" departLane="best" type="veh_passenger"/>
    <trip id="veh221" depart="2593.29" from="430045516" to="1272473358#1" departLane="best" type="veh_passenger" departSpeed="max"/>
    <trip id="veh222" depart="2605.02" from="131700468#5" to="23242835" departLane="best" type="veh_passenger"/>
    <trip id="veh223" depart="2616.75" from="430045516" to="1272473358#1" departLane="best" type="veh_passenger" departSpeed="max"/>
    <trip id="veh224" depart="2628.49" from="28053297#0" to="30735491" departLane="best" type="veh_passenger" departSpeed="max"/>
    <trip id="veh225" depart="2640.22" from="295298101#0" to="1241633682" departLane="best" type="veh_passenger" departSpeed="max"/>
    <trip id="veh226" depart="2651.96" from="28053297#0" to="252110509#3" departLane="best" type="veh_passenger" departSpeed="max"/>
    <trip id="veh227" depart="2663.69" from="295298101#0" to="1241633682" departLane="best" type="veh_passenger" departSpeed="max"/>
    <trip id="veh228" depart="2675.43" from="-432750249#0" to="157600569#1" departLane="best" type="veh_passenger"/>
    <trip id="veh229" depart="2687.16" from="184849822#2" to="1272473364#1" departLane="best" type="veh_passenger"/>
    <trip id="veh230" depart="2698.89" from="-295298104#0" to="184849822#9" departLane="best" type="veh_passenger"/>
    <trip id="veh231" depart="2710.63" from="-295298104#0" to="432750249#4" departLane="best" type="veh_passenger"/>
    <trip id="veh232" depart="2722.36" from="28053297#0" to="430045512#0" departLane="best" type="veh_passenger" departSpeed="max"/>
    <trip id="veh233" depart="2734.10" from="184849822#0" to="157600565#0" departLane="best" type="veh_passenger"/>
    <trip id="veh234" depart="2745.83" from="184849822#9" to="252110509#0" departLane="best" type="veh_passenger"/>