<?xml version="1.0" encoding="UTF-8"?>

<!-- generated on 2026-05-25T16:59:09.282427+03:00 by Eclipse SUMO netedit v1_26_0+1000-c71e510aa5d
-->

<routes xmlns:xsi="http://www.w3.org/2001/XMLSchema-instance" xsi:noNamespaceSchemaLocation="http://sumo.dlr.de/xsd/routes_file.xsd">
    <!-- VTypes -->
    <vType id="DEFAULT_VEHTYPE" vClass="bus"/>
    <!-- Vehicles, persons and containers (sorted by depart) -->
    <trip id="t_2" depart="0.00" from="131700468#5" to="264292224"/>
    <trip id="t_6" depart="0.00" from="264292224" to="264292208"/>
    <trip id="t_7" depart="0.00" from="264292224" to="594899548"/>
    <flow id="bus_155" begin="0.00" end="3600.00" probability="0.5" color="red" line="155" from="-E2" to="430045512#0" via="E0 23265254#1"/>
    <flow id="bus_294" begin="0.00" end="3600.00" probability="0.5" departLane="0" departPos="0.00" color="white" line="294" from="30735492.83" to="-E20" via="264292224 88607524 497960128 295298104#0"/>
    <flow id="bus_322" begin="0.00" end="3600.00" probability="0.5" color="cyan" line="322" from="-E2" to="-1272473366" via="169368040 131700469#1 -432750249#1"/>
    <flow id="bus_391" begin="0.00" end="3600.00" probability="0.5" color="black" line="391" from="-E2" to="1241633682" via="-295298104#0 169368044"/>
    <flow id="bus_391_1" begin="0.00" end="3600.00" probability="0.5" color="blue" line="391" from="430045516" to="-E20" via="264292208 88607524"/>
    <flow id="bus_48" begin="0.00" end="3600.00" probability="0.5" line="48" from="-E2" to="-E20" via="-295298104#1 -295298104#0 157600567#0 157600565#1 169368040 131700469#0 1272473359 131700470#0 497960128 295298104#0"/>
    <flow id="bus_800" begin="0.00" end="3600.00" probability="0.05000000000000000278" color="green" line="800" from="-E2" to="430045512#0" via="-295298104#0 157600565#0 252110509#3 78432206#0 395544026#0"/>
    <flow id="bus_800_1" begin="0.00" end="3600.00" probability="0.5" color="red" line="800" from="430045516" to="-E20" via="264292208"/>
    <flow id="bus_c339" begin="0.00" end="3600.00" probability="0.5" color="magenta" line="339" from="-E2" to="-154204353"/>
    <flow id="bus_m3" begin="0.00" end="3600.00" probability="0.5" color="blue" line="3" from="28053297#0" to="1241633682"/>
    <flow id="f_0" begin="0.00" end="3600.00" probability="0.5" color="red" line="48" from="1272473366" to="-E20" via="1272473359"/>
    <flow id="f_1" begin="0.00" end="3600.00" probability="0.5" color="red" line="339" from="154204353.882" to="-E20"/>
</routes>
