<?xml version="1.0" encoding="UTF-8"?>

<!-- generated on 2026-05-27T17:14:10.826477+03:00 by Eclipse SUMO netedit v1_26_0+1000-c71e510aa5d
-->

<routes xmlns:xsi="http://www.w3.org/2001/XMLSchema-instance" xsi:noNamespaceSchemaLocation="http://sumo.dlr.de/xsd/routes_file.xsd">
    <!-- VTypes -->
    <vType id="DEFAULT_VEHTYPE" vClass="bus"/>
    <!-- Vehicles, persons and containers (sorted by depart) -->
    <flow id="bus_155" begin="0.00" end="3600.00" probability="0.01000000000000000021" color="red" line="155" from="-E2" to="430045512#0" via="E0 23265254#1">
        <stop busStop="bs_3" duration="8.00" line="800"/>
        <stop busStop="bs_1" duration="8.00" line="800"/>
        <stop busStop="1390556611" duration="8.00" line="800"/>
        <stop busStop="1390556630" duration="8.00" line="800"/>
        <stop busStop="4730949125" duration="8.00" line="800"/>
    </flow>
    <flow id="bus_294" begin="0.00" end="3600.00" probability="0.01000000000000000021" departLane="0" departPos="0.00" color="white" line="294" from="30735492.83" to="-E20" via="264292224 88607524 497960128 295298104#0"/>
    <flow id="bus_322" begin="0.00" end="3600.00" probability="0.01000000000000000021" color="cyan" line="322" from="-E2" to="-1272473366" via="169368040 131700469#1 -432750249#1">
        <stop busStop="bs_3" duration="8.00" line="800"/>
        <stop busStop="-1449161206" duration="8.00" line="800"/>
        <stop busStop="-1123631408" duration="8.00" line="800"/>
        <stop busStop="12997959838" duration="8.00" line="800" friendlyPos="1"/>
        <stop busStop="981969019" duration="8.00" line="800" friendlyPos="1"/>
        <stop busStop="bs_0" duration="8.00" line="800" friendlyPos="1"/>
    </flow>
    <flow id="bus_339" begin="0.00" end="3600.00" probability="0.01000000000000000021" color="red" line="339" from="154204353.882" to="-E20"/>
    <flow id="bus_391" begin="0.00" end="3600.00" probability="0.01000000000000000021" color="green" line="391" from="-E2" to="1241633682" via="-295298104#0 169368044">
        <stop busStop="bs_3" duration="8.00" line="800"/>
        <stop busStop="-1449161206" duration="8.00" line="800"/>
        <stop busStop="1456333357" duration="8.00" line="800"/>
        <stop busStop="612522387" duration="8.00" line="800"/>
    </flow>
    <flow id="bus_391_1" begin="0.00" end="3600.00" probability="0.01000000000000000021" color="blue" line="391" from="430045516" to="-E20" via="264292208 88607524"/>
    <flow id="bus_48" begin="0.00" end="3600.00" probability="0.01000000000000000021" line="48" from="-E2" to="-E20" via="-295298104#1 -295298104#0 157600567#0 157600565#1 169368040 131700469#0 1272473359 131700470#0 497960128 295298104#0">
        <stop busStop="bs_3" duration="8.00" line="800"/>
        <stop busStop="-1449161206" duration="8.00" line="800"/>
        <stop busStop="-1123631408" duration="8.00" line="800"/>
        <stop busStop="12997959838" duration="8.00" line="800"/>
        <stop busStop="981969019" duration="8.00" line="800"/>
        <stop busStop="bs_0" duration="8.00" line="800"/>
    </flow>
    <flow id="bus_48_1" begin="0.00" end="3600.00" probability="0.01000000000000000021" color="red" line="48" from="1272473366" to="-E20" via="1272473359"/>
    <flow id="bus_800" begin="0.00" end="3600.00" probability="0.01000000000000000021" color="green" line="800" from="-E2" to="430045512#0" via="-295298104#0 157600565#0 252110509#3 78432206#0 395544026#0">
        <stop busStop="bs_3" duration="8.00" line="800"/>
        <stop busStop="-1449161206" duration="8.00" line="800"/>
        <stop busStop="1456333357" duration="8.00" line="800"/>
        <stop busStop="612522387" duration="8.00" line="800"/>
        <stop busStop="1390556630" duration="8.00" line="800"/>
        <stop busStop="4730949125" duration="8.00" line="800"/>
    </flow>
    <flow id="bus_800_1" begin="0.00" end="3600.00" probability="0.01000000000000000021" color="red" line="800" from="430045516" to="-E20" via="264292208"/>
    <flow id="bus_c339" begin="0.00" end="3600.00" probability="0.01000000000000000021" departLane="0" departPos="0.00" color="magenta" line="339" from="-E2" to="-154204353">
        <stop busStop="bs_3" duration="60.00" speed="13.89"/>
        <stop busStop="-10799104370" duration="60.00" speed="16.67"/>
        <stop busStop="bs_3" duration="8.00" speed="13.89" friendlyPos="1"/>
        <stop busStop="bs_3" duration="8.00" line="800" friendlyPos="1"/>
        <stop busStop="-10799104370" duration="8.00" line="800" friendlyPos="1"/>
    </flow>
    <flow id="bus_m3" begin="0.00" end="3600.00" probability="0.01000000000000000021" color="blue" line="3" from="28053297#0" to="1241633682"/>
</routes>
