<?xml version="1.0" encoding="UTF-8"?>

<!-- generated on 2026-05-24T20:48:06.636757+03:00 by Eclipse SUMO netedit v1_26_0+1000-c71e510aa5d
-->

<routes xmlns:xsi="http://www.w3.org/2001/XMLSchema-instance" xsi:noNamespaceSchemaLocation="http://sumo.dlr.de/xsd/routes_file.xsd">
    <!-- VTypes -->
    <vType id="pt_aerialway" length="2.50" vClass="cable_car" width="2.00" personCapacity="4"/>
    <vType id="pt_bus2" vClass="bus"/>
    <vType id="pt_ferry" vClass="ship"/>
    <vType id="pt_light_rail" vClass="rail_urban"/>
    <vType id="pt_minibus" vClass="bus"/>
    <vType id="pt_monorail" vClass="rail_urban"/>
    <vType id="pt_share_taxi" vClass="taxi"/>
    <vType id="pt_subway" vClass="subway"/>
    <vType id="pt_train" vClass="rail"/>
    <vType id="pt_tram" vClass="tram"/>
    <vType id="pt_trolleybus" vClass="bus"/>
    <!-- Routes -->
    <route id="pt_bus_155:0" edges="295298101#0 295298101#1 131700456#0 23265254#0 23265254#1 23265254#2 23265254#3 23265254#5 23265254#6 430045512#0" color="255,154,210">
        <stop busStop="1953905311" duration="20.00" until="123.00"/>
        <stop busStop="1390556611" duration="20.00" until="202.00"/>
        <stop busStop="1390556630" duration="20.00" until="295.00"/>
        <stop busStop="4730949125" duration="20.00" until="350.00"/>
    </route>
    <route id="pt_bus_155:1" edges="902481333#0 902481333#2 184849822#0 184849822#2 184849822#3 184849822#4 184849822#5 184849822#6 184849822#7 184849822#9 184849822#10 184849822#11 184849822#12 1272473362 24744035 34836269 157600515#0 157600515#1" color="255,154,210">
        <stop busStop="1953905283" duration="20.00" until="80.00"/>
        <stop busStop="1953905349" duration="20.00" until="172.00"/>
        <stop busStop="1953905353" duration="20.00" until="226.00"/>
        <stop busStop="1953905318" duration="20.00" until="295.00"/>
        <stop busStop="4730949154" duration="20.00" until="460.00"/>
    </route>
    <route id="pt_bus_294:0" edges="30735492 131700468#2 131700468#3 131700468#4 131700468#5 264292224 264292226 264292208 88607524 84516980 497960128 157600569#0 157600569#1 1272473364#0 1272473364#1 1272473364#2 295298104#0 295298104#1 23242835 157600515#0 157600515#1" color="194,230,255">
        <stop busStop="2699824215" duration="20.00" until="82.00"/>
        <stop busStop="981969019" duration="20.00" until="174.00"/>
        <stop busStop="4730949154" duration="20.00" until="285.00"/>
    </route>
    <route id="pt_bus_294:1" edges="295298101#0 295298101#1 265663227 -295298104#1 -295298104#0 -1272473364#2 -1272473364#1 -1272473364#0 -157600569#1 -157600569#0 157600567#0 157600567#1 157600565#0 157600565#1 296577703#1 169368040 131700469#0 131700469#1 -432750249#4 -432750249#2 -432750249#1 -432750249#0 -157600591#1 -1272473366" color="194,230,255">
        <stop busStop="-1449161206" duration="20.00" until="65.00"/>
        <stop busStop="-1123631408" duration="20.00" until="154.00"/>
    </route>
    <route id="pt_bus_322:0" edges="1272473366 157600591#0 432750249#0 432750249#1 432750249#2 432750249#4 1272473359 131700470#0 131700470#1 497960128 157600569#0 157600569#1 1272473364#0 1272473364#1 1272473364#2 295298104#0 295298104#1 23242835 157600515#0 157600515#1" color="255,154,210">
        <stop busStop="12997959838" duration="20.00" until="41.00"/>
        <stop busStop="981969019" duration="20.00" until="124.00"/>
        <stop busStop="4730949154" duration="20.00" until="309.00"/>
    </route>
    <route id="pt_bus_322:1" edges="295298101#0 295298101#1 265663227 -295298104#1 -295298104#0 -1272473364#2 -1272473364#1 -1272473364#0 -157600569#1 -157600569#0 157600567#0 157600567#1 157600565#0 157600565#1 296577703#1 169368040 131700469#0 131700469#1 -432750249#4 -432750249#2 -432750249#1 -432750249#0 -157600591#1 -1272473366" color="255,154,210">
        <stop busStop="-1449161206" duration="20.00" until="99.00"/>
        <stop busStop="-1123631408" duration="20.00" until="187.00"/>
    </route>
    <route id="pt_bus_345:0" edges="295298101#0 295298101#1 131700456#0 23265254#0 23265254#1 23265254#2 23265254#3 23265254#5 23265254#6 430045512#0" color="194,230,255">
        <stop busStop="1953905311" duration="20.00" until="71.00"/>
        <stop busStop="1390556611" duration="20.00" until="149.00"/>
        <stop busStop="1390556630" duration="20.00" until="223.00"/>
        <stop busStop="4730949125" duration="20.00" until="278.00"/>
    </route>
    <route id="pt_bus_345:1" edges="902481333#0 902481333#2 184849822#0 184849822#2 184849822#3 184849822#4 184849822#5 184849822#6 184849822#7 184849822#9 184849822#10 184849822#11 184849822#12 1272473362 24744035 34836269 157600515#0 157600515#1" color="194,230,255">
        <stop busStop="1953905283" duration="20.00" until="48.00"/>
        <stop busStop="1953905349" duration="20.00" until="123.00"/>
        <stop busStop="1953905353" duration="20.00" until="176.00"/>
        <stop busStop="1953905318" duration="20.00" until="243.00"/>
        <stop busStop="4730949154" duration="20.00" until="328.00"/>
    </route>
    <route id="pt_bus_345а:0" edges="902481333#0 902481333#2 184849822#0 184849822#2 184849822#3 184849822#4 184849822#5 184849822#6 184849822#7 184849822#9 184849822#10 184849822#11 184849822#12 1272473362 24744035 34836269 157600515#0 157600515#1" color="194,230,255">
        <stop busStop="1953905283" duration="20.00" until="48.00"/>
        <stop busStop="1953905349" duration="20.00" until="119.00"/>
        <stop busStop="1953905353" duration="20.00" until="173.00"/>
        <stop busStop="1953905318" duration="20.00" until="240.00"/>
        <stop busStop="4730949154" duration="20.00" until="350.00"/>
    </route>
    <route id="pt_bus_390:0" edges="295298101#0 295298101#1 131700456#0 23265254#0 23265254#1 23265254#2 23265254#3 23265254#5 23265254#6 430045512#0" color="255,154,210">
        <stop busStop="1953905311" duration="20.00" until="104.00"/>
        <stop busStop="1390556611" duration="20.00" until="183.00"/>
        <stop busStop="1390556630" duration="20.00" until="280.00"/>
        <stop busStop="4730949125" duration="20.00" until="334.00"/>
    </route>
    <route id="pt_bus_390:1" edges="902481333#0 902481333#2 184849822#0 184849822#2 184849822#3 184849822#4 184849822#5 184849822#6 184849822#7 184849822#9 184849822#10 184849822#11 184849822#12 1272473362 24744035 34836269 157600515#0 157600515#1" color="255,154,210">
        <stop busStop="1953905283" duration="20.00" until="48.00"/>
        <stop busStop="1953905349" duration="20.00" until="118.00"/>
        <stop busStop="1953905353" duration="20.00" until="173.00"/>
        <stop busStop="1953905318" duration="20.00" until="241.00"/>
        <stop busStop="4730949154" duration="20.00" until="364.00"/>
    </route>
    <route id="pt_bus_391:1" edges="430045516 264292226 264292208 88607524 84516980 497960128 157600569#0 157600569#1 1272473364#0 1272473364#1 1272473364#2 295298104#0 295298104#1 23242835 157600515#0 157600515#1" color="255,154,210">
        <stop busStop="2699824215" duration="20.00" until="51.00"/>
        <stop busStop="981969019" duration="20.00" until="143.00"/>
        <stop busStop="4730949154" duration="20.00" until="253.00"/>
    </route>
    <route id="pt_bus_403:0" edges="430045516 264292226 264292208 88607524 84516980 497960128 157600569#0 157600569#1 1272473364#0 1272473364#1 1272473364#2 295298104#0 295298104#1 23242835 157600515#0 157600515#1" color="194,230,255">
        <stop busStop="2699824215" duration="20.00" until="52.00"/>
        <stop busStop="981969019" duration="20.00" until="144.00"/>
        <stop busStop="4730949154" duration="20.00" until="278.00"/>
    </route>
    <route id="pt_bus_48:0" edges="1272473366 157600591#0 432750249#0 432750249#1 432750249#2 432750249#4 1272473359 131700470#0 131700470#1 497960128 157600569#0 157600569#1 1272473364#0 1272473364#1 1272473364#2 295298104#0 295298104#1 23242835 157600515#0 157600515#1" color="194,230,255">
        <stop busStop="12997959838" duration="20.00" until="40.00"/>
        <stop busStop="981969019" duration="20.00" until="122.00"/>
        <stop busStop="4730949154" duration="20.00" until="234.00"/>
    </route>
    <route id="pt_bus_48:1" edges="295298101#0 295298101#1 265663227 -295298104#1 -295298104#0 -1272473364#2 -1272473364#1 -1272473364#0 -157600569#1 -157600569#0 157600567#0 157600567#1 157600565#0 157600565#1 296577703#1 169368040 131700469#0 131700469#1 -432750249#4 -432750249#2 -432750249#1 -432750249#0 -157600591#1 -1272473366" color="194,230,255">
        <stop busStop="-1449161206" duration="20.00" until="94.00"/>
        <stop busStop="-1123631408" duration="20.00" until="182.00"/>
    </route>
    <route id="pt_bus_597:0" edges="902481333#0 902481333#2 184849822#0 184849822#2 184849822#3 184849822#4 184849822#5 184849822#6 184849822#7 184849822#9 184849822#10 184849822#11 184849822#12 1272473362 24744035 34836269 157600515#0 157600515#1" color="255,154,210">
        <stop busStop="1953905283" duration="20.00" until="49.00"/>
        <stop busStop="1953905349" duration="20.00" until="120.00"/>
        <stop busStop="1953905353" duration="20.00" until="173.00"/>
        <stop busStop="1953905318" duration="20.00" until="240.00"/>
        <stop busStop="4730949154" duration="20.00" until="411.00"/>
    </route>
    <route id="pt_bus_597:1" edges="295298101#0 295298101#1 131700456#0 23265254#0 23265254#1 23265254#2 23265254#3 23265254#5 23265254#6 430045512#0" color="255,154,210">
        <stop busStop="1953905311" duration="20.00" until="94.00"/>
        <stop busStop="1390556611" duration="20.00" until="173.00"/>
        <stop busStop="1390556630" duration="20.00" until="269.00"/>
        <stop busStop="4730949125" duration="20.00" until="324.00"/>
    </route>
    <route id="pt_bus_800:1" edges="430045516 264292226 264292208 88607524 84516980 497960128 157600569#0 157600569#1 1272473364#0 1272473364#1 1272473364#2 295298104#0 295298104#1 23242835 157600515#0 157600515#1" color="255,154,210">
        <stop busStop="2699824215" duration="20.00" until="60.00"/>
        <stop busStop="981969019" duration="20.00" until="151.00"/>
        <stop busStop="4730949154" duration="20.00" until="262.00"/>
    </route>
    <route id="pt_bus_м35:0" edges="902481333#0 902481333#2 184849822#0 184849822#2 184849822#3 184849822#4 184849822#5 184849822#6 184849822#7 184849822#9 184849822#10 184849822#11 184849822#12 1272473362 24744035 34836269 157600515#0 157600515#1" color="64,183,129">
        <stop busStop="1953905283" duration="20.00" until="47.00"/>
        <stop busStop="1953905349" duration="20.00" until="142.00"/>
        <stop busStop="1953905353" duration="20.00" until="197.00"/>
        <stop busStop="1953905318" duration="20.00" until="264.00"/>
        <stop busStop="4730949154" duration="20.00" until="385.00"/>
    </route>
    <route id="pt_bus_м35:1" edges="295298101#0 295298101#1 131700456#0 23265254#0 23265254#1 23265254#2 23265254#3 23265254#5 23265254#6 430045512#0" color="64,183,129">
        <stop busStop="1953905311" duration="20.00" until="72.00"/>
        <stop busStop="1390556611" duration="20.00" until="149.00"/>
        <stop busStop="1390556630" duration="20.00" until="242.00"/>
        <stop busStop="4730949125" duration="20.00" until="298.00"/>
    </route>
    <route id="pt_bus_м3:1" edges="430045516 264292226 594899548 594899548-AddedOffRampEdge 23396772#0 23396772#1 28053288#1 594899552" color="2,127,255">
        <stop busStop="6242129323" duration="20.00" until="34.00"/>
        <stop busStop="6242129326" duration="20.00" until="102.00"/>
    </route>
    <route id="pt_bus_м3а:0" edges="430045516 264292226 594899548 594899548-AddedOffRampEdge 23396772#0 23396772#1 28053288#1 594899552" color="2,127,255">
        <stop busStop="6242129323" duration="20.00" until="34.00"/>
        <stop busStop="6242129326" duration="20.00" until="101.00"/>
    </route>
    <route id="pt_bus_с339:0" edges="-154204353" color="255,154,210">
        <stop busStop="-10799104370" duration="20.00" until="45.00"/>
        <stop busStop="-10799104367" duration="20.00" until="103.00"/>
        <stop busStop="-10799104373" duration="20.00" until="163.00"/>
        <stop busStop="-10799104385" duration="20.00" until="231.00"/>
    </route>
    <route id="pt_bus_с339:1" edges="154204353 1272473361 24744053 157600515#0 157600515#1" color="255,154,210">
        <stop busStop="10799104384" duration="20.00" until="47.00"/>
        <stop busStop="10799104374" duration="20.00" until="114.00"/>
        <stop busStop="10799104369" duration="20.00" until="172.00"/>
        <stop busStop="10799104372" duration="20.00" until="231.00"/>
        <stop busStop="4730949154" duration="20.00" until="428.00"/>
    </route>
    <route id="pt_bus_т21:0" edges="902481333#0 902481333#2 184849822#0 184849822#2 184849822#3 184849822#4 184849822#5 184849822#6 184849822#7 184849822#9 184849822#10 184849822#11 184849822#12 1272473362 24744035 34836269 157600515#0 157600515#1" color="194,230,255">
        <stop busStop="1953905283" duration="20.00" until="85.00"/>
        <stop busStop="1953905349" duration="20.00" until="175.00"/>
        <stop busStop="1953905353" duration="20.00" until="230.00"/>
        <stop busStop="1953905318" duration="20.00" until="297.00"/>
        <stop busStop="4730949154" duration="20.00" until="385.00"/>
    </route>
    <route id="pt_bus_т21:1" edges="295298101#0 295298101#1 131700456#0 23265254#0 23265254#1 23265254#2 23265254#3 23265254#5 23265254#6 430045512#0" color="194,230,255">
        <stop busStop="1953905311" duration="20.00" until="56.00"/>
        <stop busStop="1390556611" duration="20.00" until="134.00"/>
        <stop busStop="1390556630" duration="20.00" until="206.00"/>
        <stop busStop="4730949125" duration="20.00" until="261.00"/>
    </route>
    <route id="pt_bus_т65:0" edges="902481333#0 902481333#2 184849822#0 184849822#2 184849822#3 184849822#4 184849822#5 184849822#6 184849822#7 184849822#9 184849822#10 184849822#11 184849822#12 1272473362 24744035 34836269 157600515#0 157600515#1" color="194,230,255">
        <stop busStop="1953905283" duration="20.00" until="48.00"/>
        <stop busStop="1953905349" duration="20.00" until="134.00"/>
        <stop busStop="1953905353" duration="20.00" until="188.00"/>
        <stop busStop="1953905318" duration="20.00" until="256.00"/>
        <stop busStop="4730949154" duration="20.00" until="392.00"/>
    </route>
    <route id="pt_bus_т65:1" edges="295298101#0 295298101#1 131700456#0 23265254#0 23265254#1 23265254#2 23265254#3 23265254#5 23265254#6 430045512#0" color="194,230,255">
        <stop busStop="1953905311" duration="20.00" until="105.00"/>
        <stop busStop="1390556611" duration="20.00" until="184.00"/>
        <stop busStop="1390556630" duration="20.00" until="280.00"/>
        <stop busStop="4730949125" duration="20.00" until="335.00"/>
    </route>
    <route id="pt_bus_т86:0" edges="902481333#0 902481333#2 184849822#0 184849822#2 184849822#3 184849822#4 184849822#5 184849822#6 184849822#7 184849822#9 184849822#10 184849822#11 184849822#12 1272473362 24744035 34836269 157600515#0 157600515#1" color="255,154,210">
        <stop busStop="1953905283" duration="20.00" until="82.00"/>
        <stop busStop="1953905349" duration="20.00" until="167.00"/>
        <stop busStop="1953905353" duration="20.00" until="222.00"/>
        <stop busStop="1953905318" duration="20.00" until="290.00"/>
        <stop busStop="4730949154" duration="20.00" until="424.00"/>
    </route>
    <route id="pt_bus_т86:1" edges="295298101#0 295298101#1 131700456#0 23265254#0 23265254#1 23265254#2 23265254#3 23265254#5 23265254#6 430045512#0" color="255,154,210">
        <stop busStop="1953905311" duration="20.00" until="95.00"/>
        <stop busStop="1390556611" duration="20.00" until="173.00"/>
        <stop busStop="1390556630" duration="20.00" until="266.00"/>
        <stop busStop="4730949125" duration="20.00" until="321.00"/>
    </route>
    <route id="pt_bus_т86к:0" edges="902481333#0 902481333#2 184849822#0 184849822#2 184849822#3 184849822#4 184849822#5 184849822#6 184849822#7 184849822#9 184849822#10 184849822#11 184849822#12 1272473362 24744035 34836269 157600515#0 157600515#1" color="255,154,210">
        <stop busStop="1953905283" duration="20.00" until="81.00"/>
        <stop busStop="1953905349" duration="20.00" until="171.00"/>
        <stop busStop="1953905353" duration="20.00" until="225.00"/>
        <stop busStop="1953905318" duration="20.00" until="292.00"/>
        <stop busStop="4730949154" duration="20.00" until="382.00"/>
    </route>
    <!-- Vehicles, persons and containers (sorted by depart) -->
    <flow id="pt_bus_294:0" type="pt_bus" begin="3.00" end="3603.00" period="600" line="294:0" route="pt_bus_294:0">
        <param key="completeness" value="0.06"/>
        <param key="name" value="Автобус 294: МФЦ «Хорошёво-Мнёвники» =&gt; 1-й Силикатный проезд"/>
    </flow>
    <flow id="pt_bus_345а:0" type="pt_bus" begin="15.00" end="3615.00" period="600" line="345а:0" route="pt_bus_345а:0">
        <param key="completeness" value="0.11"/>
        <param key="name" value="Автобус 345а: Проспект Маршала Жукова =&gt; МЦД Беговая"/>
    </flow>
    <flow id="pt_bus_м3а:0" type="pt_bus" begin="17.00" end="3617.00" period="600" line="м3а:0" route="pt_bus_м3а:0">
        <param key="completeness" value="0.06"/>
        <param key="name" value="Автобус м3а: Серебрянный Бор =&gt; Метро «Краснопресненская»"/>
    </flow>
    <flow id="pt_bus_т86к:0" type="pt_bus" begin="21.00" end="3621.00" period="600" line="т86к:0" route="pt_bus_т86к:0">
        <param key="completeness" value="0.07"/>
        <param key="name" value="Автобус т86к: Серебряный Бор =&gt; Метро «Сокол»"/>
    </flow>
    <flow id="pt_bus_т21:0" type="pt_bus" begin="55.00" end="3655.00" period="600" line="т21:0" route="pt_bus_т21:0">
        <param key="completeness" value="0.14"/>
        <param key="name" value="Автобус т21: Берег Москвы-реки =&gt; Метро «Полежаевская»"/>
    </flow>
    <flow id="pt_bus_т21:1" type="pt_bus" begin="58.00" end="3658.00" period="600" line="т21:1" route="pt_bus_т21:1">
        <param key="completeness" value="0.11"/>
        <param key="name" value="Автобус т21: Метро «Полежаевская» =&gt; Берег Москвы-реки"/>
    </flow>
    <flow id="pt_bus_48:0" type="pt_bus" begin="93.00" end="3693.00" period="600" line="48:0" route="pt_bus_48:0">
        <param key="completeness" value="0.07"/>
        <param key="name" value="Автобус 48: Живописная улица =&gt; 1-й Силикатный проезд"/>
    </flow>
    <flow id="pt_bus_48:1" type="pt_bus" begin="119.00" end="3719.00" period="600" line="48:1" route="pt_bus_48:1">
        <param key="completeness" value="0.05"/>
        <param key="name" value="Автобус 48: 1-й Силикатный проезд =&gt; Живописная улица"/>
    </flow>
    <flow id="pt_bus_м35:0" type="pt_bus" begin="131.00" end="3731.00" period="600" line="м35:0" route="pt_bus_м35:0">
        <param key="completeness" value="0.06"/>
        <param key="name" value="Автобус м35: Крылатское =&gt; Метро «Краснопресненская»"/>
    </flow>
    <flow id="pt_bus_м35:1" type="pt_bus" begin="132.00" end="3732.00" period="600" line="м35:1" route="pt_bus_м35:1">
        <param key="completeness" value="0.05"/>
        <param key="name" value="Автобус м35: Метро «Краснопресненская» =&gt; Крылатское"/>
    </flow>
    <flow id="pt_bus_403:0" type="pt_bus" begin="201.00" end="3801.00" period="600" line="403:0" route="pt_bus_403:0">
        <param key="completeness" value="0.03"/>
        <param key="name" value="Автобус 403: Карамышевская набережная =&gt; Прибрежный проезд"/>
    </flow>
    <flow id="pt_bus_345:0" type="pt_bus" begin="227.00" end="3827.00" period="600" line="345:0" route="pt_bus_345:0">
        <param key="completeness" value="0.07"/>
        <param key="name" value="Автобус 345: Белорусский вокзал =&gt; Проспект Маршала Жукова"/>
    </flow>
    <flow id="pt_bus_345:1" type="pt_bus" begin="253.00" end="3853.00" period="600" line="345:1" route="pt_bus_345:1">
        <param key="completeness" value="0.08"/>
        <param key="name" value="Автобус 345: Проспект Маршала Жукова =&gt; Белорусский вокзал"/>
    </flow>
    <flow id="pt_bus_м3:1" type="pt_bus" begin="321.00" end="3921.00" period="600" line="м3:1" route="pt_bus_м3:1">
        <param key="completeness" value="0.02"/>
        <param key="name" value="Автобус м3: Серебрянный Бор =&gt; Проспект Будённого"/>
    </flow>
    <flow id="pt_bus_т65:0" type="pt_bus" begin="326.00" end="3926.00" period="600" line="т65:0" route="pt_bus_т65:0">
        <param key="completeness" value="0.10"/>
        <param key="name" value="Автобус т65: Серебряный Бор =&gt; Метро «Аэропорт»"/>
    </flow>
    <flow id="pt_bus_т86:0" type="pt_bus" begin="331.00" end="3931.00" period="600" line="т86:0" route="pt_bus_т86:0">
        <param key="completeness" value="0.07"/>
        <param key="name" value="Автобус т86: Серебряный Бор =&gt; Метро «Сокол»"/>
    </flow>
    <flow id="pt_bus_т86:1" type="pt_bus" begin="353.00" end="3953.00" period="600" line="т86:1" route="pt_bus_т86:1">
        <param key="completeness" value="0.08"/>
        <param key="name" value="Автобус т86: Метро «Сокол» =&gt; Серебряный Бор"/>
    </flow>
    <flow id="pt_bus_155:0" type="pt_bus" begin="362.00" end="3962.00" period="600" line="155:0" route="pt_bus_155:0">
        <param key="completeness" value="0.06"/>
        <param key="name" value="Автобус 155: Метро «Филёвский парк» =&gt; Проспект Маршала Жукова"/>
    </flow>
    <flow id="pt_bus_155:1" type="pt_bus" begin="371.00" end="3971.00" period="600" line="155:1" route="pt_bus_155:1">
        <param key="completeness" value="0.07"/>
        <param key="name" value="Автобус 155: Проспект Маршала Жукова =&gt; Метро «Филёвский парк»"/>
    </flow>
    <flow id="pt_bus_391:1" type="pt_bus" begin="389.00" end="3989.00" period="600" line="391:1" route="pt_bus_391:1">
        <param key="completeness" value="0.09"/>
        <param key="name" value="Автобус 391: Метро «Молодёжная» =&gt; Метро «Полежаевская»"/>
    </flow>
    <flow id="pt_bus_800:1" type="pt_bus" begin="418.00" end="4018.00" period="600" line="800:1" route="pt_bus_800:1">
        <param key="completeness" value="0.05"/>
        <param key="name" value="Автобус 800: Щукино =&gt; Метро «Полежаевская»"/>
    </flow>
    <flow id="pt_bus_с339:0" type="pt_bus" begin="437.00" end="4037.00" period="600" line="с339:0" route="pt_bus_с339:0">
        <param key="completeness" value="0.10"/>
        <param key="name" value="Автобус с339: Метро «Полежаевская» =&gt; Улица Расплетина"/>
    </flow>
    <flow id="pt_bus_с339:1" type="pt_bus" begin="441.00" end="4041.00" period="600" line="с339:1" route="pt_bus_с339:1">
        <param key="completeness" value="0.12"/>
        <param key="name" value="Автобус с339: Улица Расплетина =&gt; Метро «Полежаевская»"/>
    </flow>
    <flow id="pt_bus_294:1" type="pt_bus" begin="483.00" end="4083.00" period="600" line="294:1" route="pt_bus_294:1">
        <param key="completeness" value="0.03"/>
        <param key="name" value="Автобус 294: 1-й Силикатный проезд =&gt; МФЦ «Хорошёво-Мнёвники»"/>
    </flow>
    <flow id="pt_bus_322:0" type="pt_bus" begin="484.00" end="4084.00" perHour="6.00" line="322:0" route="pt_bus_322:0">
        <param key="completeness" value="0.04"/>
        <param key="name" value="Автобус 322: 1-й Силикатный проезд =&gt; Метро «Сокол»"/>
    </flow>
    <flow id="pt_bus_322:1" type="pt_bus" begin="489.00" end="4089.00" period="600" line="322:1" route="pt_bus_322:1">
        <param key="completeness" value="0.03"/>
        <param key="name" value="Автобус 322: Метро «Сокол» =&gt; 1-й Силикатный проезд"/>
    </flow>
    <flow id="pt_bus_597:0" type="pt_bus" begin="497.00" end="4097.00" period="600" line="597:0" route="pt_bus_597:0">
        <param key="completeness" value="0.12"/>
        <param key="name" value="Автобус 597: Набережная Новикова-Прибоя =&gt; Метро «Сокол»"/>
    </flow>
    <flow id="pt_bus_597:1" type="pt_bus" begin="508.00" end="4108.00" period="600" line="597:1" route="pt_bus_597:1">
        <param key="completeness" value="0.09"/>
        <param key="name" value="Автобус 597: Метро «Сокол» =&gt; Набережная Новикова-Прибоя"/>
    </flow>
    <flow id="pt_bus_т65:1" type="pt_bus" begin="535.00" end="4135.00" period="600" line="т65:1" route="pt_bus_т65:1">
        <param key="completeness" value="0.06"/>
        <param key="name" value="Автобус т65: Метро «Аэропорт» =&gt; Серебряный Бор"/>
    </flow>
    <flow id="pt_bus_390:0" type="pt_bus" begin="574.00" end="4174.00" period="600" line="390:0" route="pt_bus_390:0">
        <param key="completeness" value="0.10"/>
        <param key="name" value="Автобус 390: Метро «Полежаевская» =&gt; Пляж №3 Cеребряного Бора"/>
    </flow>
    <flow id="pt_bus_390:1" type="pt_bus" begin="583.00" end="4183.00" period="600" line="390:1" route="pt_bus_390:1">
        <param key="completeness" value="0.12"/>
        <param key="name" value="Автобус 390: Пляж №3 Cеребряного Бора =&gt; Метро «Полежаевская»"/>
    </flow>
</routes>

    </flow>
    
    <!-- Добавляем автомобили -->
    <vType id="DEFAULT_VEHTYPE" vClass="passenger" accel="2.6" decel="4.5" sigma="0.5" length="4.5"/>
    
    <flow id="traffic" type="DEFAULT_VEHTYPE" begin="0" end="3600" period="7.2" probability="1">
        <param key="from" value="random"/>
        <param key="to" value="random"/>
    </flow>
    
</routes>
