<?xml version="1.0" encoding="UTF-8"?>

<!-- generated on 2026-05-30T18:49:10.100454+03:00 by Eclipse SUMO netedit 1.26.0
-->

<additional xmlns:xsi="http://www.w3.org/2001/XMLSchema-instance" xsi:noNamespaceSchemaLocation="http://sumo.dlr.de/xsd/additional_file.xsd">
    <!-- StoppingPlaces -->
    <busStop id="-10799104370" name="3-я Хорошёвская улица" lane="-154204353_0" startPos="22.48" endPos="37.48" friendlyPos="1" lines="339"/>
    <busStop id="-1123631408" name="Улица Мнёвники" lane="-432750249#4_0" startPos="26.54" endPos="41.54" friendlyPos="1" lines="48 294 322"/>
    <busStop id="-1449161206" name="Улица Мнёвники, 4" lane="-157600569#1_0" startPos="15.97" endPos="30.97" friendlyPos="1" lines="48 403 391 800 294 322"/>
    <busStop id="10799104372" name="3-я Хорошёвская улица" lane="154204353.882_0" startPos="137.71" endPos="152.71" friendlyPos="1" lines="339"/>
    <busStop id="12997959838" name="Улица Мнёвники" lane="1272473366_0" startPos="22.16" endPos="37.16" friendlyPos="1" lines="48 322"/>
    <busStop id="1390556611" name="Проспект Маршала Жукова, 14" lane="23265254#5_0" startPos="37.04" endPos="52.04" friendlyPos="1" lines="21 35 14 345 86 155 597 65 390"/>
    <busStop id="1390556630" name="Метро «Народное Ополчение»" lane="430045512#0_0" startPos="83.75" endPos="98.75" friendlyPos="1" lines="21 35 14 345 86 155 800 597 65 390"/>
    <busStop id="1456333357" name="МЖК «Атом»" lane="252110509#2_0" startPos="18.36" endPos="33.36" friendlyPos="1" lines="3 403 3 391 800"/>
    <busStop id="1953905283" name="Метро «Народное Ополчение»" lane="902481333#0_0" startPos="101.34" endPos="116.34" friendlyPos="1" lines="345 86 21 35 14 345 65 86 155 597 390"/>
    <busStop id="1953905349" name="Улица Демьяна Бедного" lane="184849822#2_0" startPos="47.34" endPos="62.34" friendlyPos="1" lines="345 86 21 35 14 345 65 86 155 597 390"/>
    <busStop id="1953905353" name="Проспект Маршала Жукова, 14" lane="184849822#7_0" startPos="23.66" endPos="38.66" friendlyPos="1" lines="345 86 21 35 14 345 65 86 155 597 390"/>
    <busStop id="2699824215" name="Поликлиника" lane="264292208_0" startPos="41.31" endPos="56.31" friendlyPos="1" lines="294 403 391 800"/>
    <busStop id="4730949125" name="Метро «Народное Ополчение»" lane="430045512#0_0" startPos="334.50" endPos="349.50" friendlyPos="1" lines="21 35 14 345 86 155 800 597 65 390"/>
    <busStop id="612522387" name="Поликлиника" lane="252110509#3_0" startPos="33.49" endPos="48.49" friendlyPos="1" lines="3 403 3 391 800"/>
    <busStop id="6242129323" name="Поликлиника №115" lane="430045516_0" startPos="6.89" endPos="21.89" friendlyPos="1" lines="3 3"/>
    <busStop id="6242129325" name="Улица Мнёвники" lane="28053297#1_0" startPos="93.90" endPos="108.90" friendlyPos="1" lines="3 3"/>
    <busStop id="6242129326" name="Улица Мнёвники" lane="23396772#0_0" startPos="57.39" endPos="72.39" friendlyPos="1" lines="3 3"/>
    <busStop id="981969019" name="Улица Мнёвники, 4" lane="497960128_0" startPos="0.00" endPos="15.00" friendlyPos="1" lines="294 48 403 391 800 322">
        <access lane="157600567#0_0" pos="26.19" friendlyPos="1" length="10.64"/>
        <access lane="82496098#2_0" pos="31.44" friendlyPos="1" length="46.47"/>
    </busStop>
</additional>
