<?xml version="1.0" encoding="UTF-8"?>

<!-- generated on 2026-05-03T12:57:02.870990+03:00 by Eclipse SUMO netconvert v1_26_0+1000-c71e510aa5d
<netconvertConfiguration xmlns:xsi="http://www.w3.org/2001/XMLSchema-instance" xsi:noNamespaceSchemaLocation="http://sumo.dlr.de/xsd/netconvertConfiguration.xsd">

    <input>
        <type-files value="/home/diaden/sumo/tools/../data/typemap/osmNetconvert.typ.xml,/home/diaden/sumo/tools/../data/typemap/osmNetconvertAerialway.typ.xml"/>
        <osm-files value="osm_bbox.osm.xml.gz"/>
    </input>

    <output>
        <output-file value="osm.net.xml.gz"/>
        <output.street-names value="true"/>
        <output.original-names value="true"/>
        <ptstop-output value="osm_stops.add.xml"/>
        <ptline-output value="osm_ptlines.xml"/>
        <ptline-clean-up value="true"/>
    </output>

    <projection>
        <proj.utm value="true"/>
    </projection>

    <processing>
        <geometry.remove value="true"/>
    </processing>

    <tls_building>
        <tls.discard-simple value="true"/>
        <tls.join value="true"/>
        <tls.guess-signals value="true"/>
        <tls.default-type value="actuated"/>
    </tls_building>

    <ramp_guessing>
        <ramps.guess value="true"/>
    </ramp_guessing>

    <junctions>
        <junctions.join value="true"/>
    </junctions>

    <railway>
        <railway.topology.repair value="true"/>
    </railway>

</netconvertConfiguration>
-->

<additional xmlns:xsi="http://www.w3.org/2001/XMLSchema-instance" xsi:noNamespaceSchemaLocation="http://sumo.dlr.de/xsd/additional_file.xsd">
    <busStop id="-10799104367" name="Новохорошёвский проезд" lane="-154204353_0" startPos="333.06" endPos="348.06" friendlyPos="true" lines="с339"/>
    <busStop id="-10799104370" name="3-я Хорошёвская улица" lane="-154204353_0" startPos="61.72" endPos="76.72" friendlyPos="true" lines="с339"/>
    <busStop id="-10799104373" name="Институт «Гипросвязь»" lane="-154204353_0" startPos="614.16" endPos="629.16" friendlyPos="true" lines="с339"/>
    <busStop id="-10799104385" name="ТЭЦ-16" lane="-154204353_0" startPos="1028.72" endPos="1043.72" friendlyPos="true" lines="с339"/>
    <busStop id="-1123631408" name="Улица Мнёвники" lane="-432750249#4_0" startPos="26.54" endPos="41.54" friendlyPos="true" lines="48 294 322">
        <access lane="-242803994_0" pos="104.51" length="25.11" friendlyPos="1"/>
        <access lane="-242804001#0_0" pos="66.37" length="12.27" friendlyPos="1"/>
        <access lane="1124281521_0" pos="92.72" length="71.39" friendlyPos="1"/>
        <access lane="242803994_0" pos="0.00" length="29.72" friendlyPos="1"/>
        <access lane="242804001#0_0" pos="0.00" length="16.33" friendlyPos="1"/>
    </busStop>
    <busStop id="-1449161206" name="Улица Мнёвники, 4" lane="-157600569#1_0" startPos="15.97" endPos="30.97" friendlyPos="true" lines="48 403 391 800 294 322">
        <access lane="-1388259065#0_0" pos="13.21" length="41.94" friendlyPos="1"/>
        <access lane="-139782190_0" pos="14.99" length="21.98" friendlyPos="1"/>
        <access lane="1388259065#0_0" pos="0.00" length="44.03" friendlyPos="1"/>
        <access lane="139782190_0" pos="0.00" length="25.44" friendlyPos="1"/>
        <access lane="83116907_0" pos="0.00" length="44.65" friendlyPos="1"/>
    </busStop>
    <busStop id="10799104369" name="Новохорошёвский проезд" lane="154204353_0" startPos="752.67" endPos="767.67" friendlyPos="true" lines="с339"/>
    <busStop id="10799104372" name="3-я Хорошёвская улица" lane="154204353_0" startPos="1044.90" endPos="1059.90" friendlyPos="true" lines="с339"/>
    <busStop id="10799104374" name="Институт «Гипросвязь»" lane="154204353_0" startPos="510.66" endPos="525.66" friendlyPos="true" lines="с339"/>
    <busStop id="10799104384" name="ТЭЦ-16" lane="154204353_0" startPos="83.70" endPos="98.70" friendlyPos="true" lines="с339"/>
    <busStop id="12997959838" name="Улица Мнёвники" lane="1272473366_0" startPos="22.16" endPos="37.16" friendlyPos="true" lines="48 322">
        <access lane="-96965309#0_0" pos="14.99" length="50.78" friendlyPos="1"/>
        <access lane="-96965309#1_0" pos="32.45" length="76.94" friendlyPos="1"/>
        <access lane="432750735_0" pos="0.00" length="88.82" friendlyPos="1"/>
        <access lane="96965309#0_0" pos="0.00" length="55.36" friendlyPos="1"/>
        <access lane="96965309#1_0" pos="0.00" length="79.91" friendlyPos="1"/>
    </busStop>
    <busStop id="1390556611" name="Проспект Маршала Жукова, 14" lane="23265254#5_0" startPos="37.04" endPos="52.04" friendlyPos="true" lines="т21 м35 н14 345 т86 155 597 т65 390">
        <access lane="-486615326#0_0" pos="0.00" length="35.02" friendlyPos="1"/>
        <access lane="-486615330#0_0" pos="0.00" length="43.58" friendlyPos="1"/>
        <access lane="-83281524_0" pos="41.69" length="21.68" friendlyPos="1"/>
        <access lane="486615330#1_0" pos="3.38" length="39.71" friendlyPos="1"/>
        <access lane="83281524_0" pos="19.90" length="16.88" friendlyPos="1"/>
    </busStop>
    <busStop id="1390556630" name="Метро «Народное Ополчение»" lane="430045512#0_0" startPos="113.48" endPos="128.48" friendlyPos="true" lines="т21 м35 н14 345 т86 155 800 597 т65 390">
        <access lane="-139758110_0" pos="44.22" length="148.49" friendlyPos="1"/>
        <access lane="-139758111_0" pos="0.00" length="86.39" friendlyPos="1"/>
        <access lane="-83116880#0_0" pos="16.71" length="143.31" friendlyPos="1"/>
        <access lane="139758100_0" pos="66.65" length="81.79" friendlyPos="1"/>
        <access lane="83116880#0_0" pos="0.00" length="138.57" friendlyPos="1"/>
    </busStop>
    <busStop id="1456333357" name="МЖК «Атом»" lane="252110509#2_0" startPos="18.36" endPos="33.36" friendlyPos="true" lines="м3а 403 м3 391 800">
        <access lane="-157600521#4_0" pos="173.13" length="69.14" friendlyPos="1"/>
        <access lane="-361598428#1_0" pos="0.00" length="50.32" friendlyPos="1"/>
        <access lane="157600521#4_0" pos="87.32" length="73.94" friendlyPos="1"/>
        <access lane="185707174#2_0" pos="88.47" length="74.92" friendlyPos="1"/>
        <access lane="361598428#1_0" pos="76.61" length="45.76" friendlyPos="1"/>
    </busStop>
    <busStop id="1953905283" name="Метро «Народное Ополчение»" lane="902481333#0_0" startPos="101.34" endPos="116.34" friendlyPos="true" lines="345а т86к т21 м35 н14 345 т65 т86 155 597 390">
        <access lane="-139758111_0" pos="0.00" length="189.65" friendlyPos="1"/>
        <access lane="-139758125#1_0" pos="0.00" length="233.91" friendlyPos="1"/>
        <access lane="139758100_0" pos="66.65" length="188.02" friendlyPos="1"/>
        <access lane="139758117#2_0" pos="16.36" length="282.40" friendlyPos="1"/>
        <access lane="139758125#1_0" pos="44.36" length="237.69" friendlyPos="1"/>
    </busStop>
    <busStop id="1953905311" name="Сквер Маршала Жукова" lane="131700456#0_0" startPos="78.21" endPos="93.21" friendlyPos="true" lines="т21 м35 н14 345 т86 155 597 т65 390"/>
    <busStop id="1953905318" name="Сквер Маршала Жукова" lane="1272473362_0" startPos="45.39" endPos="60.39" friendlyPos="true" lines="345а т86к т21 м35 н14 345 т65 т86 155 597 390">
        <access lane="-82496099_0" pos="75.35" length="81.30" friendlyPos="1"/>
        <access lane="-83290030#2_0" pos="66.50" length="81.73" friendlyPos="1"/>
        <access lane="131700456#0_0" pos="85.76" length="14.53" friendlyPos="1"/>
        <access lane="82496099_0" pos="11.74" length="86.10" friendlyPos="1"/>
        <access lane="83290030#2_0" pos="102.29" length="76.93" friendlyPos="1"/>
    </busStop>
    <busStop id="1953905349" name="Улица Демьяна Бедного" lane="184849822#2_0" startPos="56.36" endPos="71.36" friendlyPos="true" lines="345а т86к т21 м35 н14 345 т65 т86 155 597 390">
        <access lane="-83116589#0_0" pos="23.90" length="56.34" friendlyPos="1"/>
        <access lane="-83116698_0" pos="0.00" length="24.62" friendlyPos="1"/>
        <access lane="-83116816#0_0" pos="38.95" length="67.45" friendlyPos="1"/>
        <access lane="83116589#0_0" pos="0.00" length="59.96" friendlyPos="1"/>
        <access lane="83116698_0" pos="98.49" length="29.28" friendlyPos="1"/>
    </busStop>
    <busStop id="1953905353" name="Проспект Маршала Жукова, 14" lane="184849822#7_0" startPos="23.66" endPos="38.66" friendlyPos="true" lines="345а т86к т21 м35 н14 345 т65 т86 155 597 390">
        <access lane="-139778862#5_0" pos="0.00" length="68.40" friendlyPos="1"/>
        <access lane="-27634583#0_0" pos="34.03" length="51.87" friendlyPos="1"/>
        <access lane="-83116644_0" pos="0.00" length="55.50" friendlyPos="1"/>
        <access lane="27634583#0_0" pos="0.00" length="56.63" friendlyPos="1"/>
        <access lane="83116644_0" pos="75.77" length="56.29" friendlyPos="1"/>
    </busStop>
    <busStop id="2699824215" name="Поликлиника" lane="264292208_0" startPos="41.31" endPos="56.31" friendlyPos="true" lines="294 403 391 800">
        <access lane="-1201791993#0_0" pos="62.85" length="36.49" friendlyPos="1"/>
        <access lane="-1201791993#1_0" pos="2.62" length="47.94" friendlyPos="1"/>
        <access lane="-83116828_0" pos="117.63" length="58.83" friendlyPos="1"/>
        <access lane="1201791993#0_0" pos="14.37" length="31.69" friendlyPos="1"/>
        <access lane="1201791993#1_0" pos="73.18" length="52.76" friendlyPos="1"/>
    </busStop>
    <busStop id="4730949125" name="Метро «Народное Ополчение»" lane="430045512#0_0" startPos="334.50" endPos="349.50" friendlyPos="true" lines="т21 м35 н14 345 т86 155 800 597 т65 390"/>
    <busStop id="4730949154" name="МЦК «Хорошёво»" lane="157600515#1_0" startPos="148.04" endPos="163.04" friendlyPos="true" lines="294 345а т86к т21 48 м35 н14 403 345 т65 т86 155 391 800 с339 322 597 390">
        <access lane="-106619068_0" pos="61.00" length="109.60" friendlyPos="1"/>
        <access lane="-129110142_0" pos="170.72" length="67.12" friendlyPos="1"/>
        <access lane="106619068_0" pos="182.16" length="104.26" friendlyPos="1"/>
        <access lane="129110142_0" pos="202.30" length="62.17" friendlyPos="1"/>
        <access lane="295298101#0_0" pos="0.00" length="119.49" friendlyPos="1"/>
    </busStop>
    <busStop id="612522387" name="Поликлиника" lane="252110509#3_0" startPos="33.49" endPos="48.49" friendlyPos="true" lines="м3а 403 м3 391 800">
        <access lane="-1201791993#0_0" pos="64.57" length="87.48" friendlyPos="1"/>
        <access lane="-1201791993#1_0" pos="2.62" length="99.51" friendlyPos="1"/>
        <access lane="-83116828_0" pos="117.63" length="107.34" friendlyPos="1"/>
        <access lane="1201791993#0_0" pos="12.42" length="82.67" friendlyPos="1"/>
        <access lane="1201791993#1_0" pos="73.18" length="104.33" friendlyPos="1"/>
    </busStop>
    <busStop id="6242129323" name="Поликлиника №115" lane="430045516_0" startPos="0.00" endPos="15.00" friendlyPos="true" lines="м3а м3">
        <access lane="-1201791713_0" pos="5.93" length="81.86" friendlyPos="1"/>
        <access lane="-185707200#0_0" pos="43.29" length="33.56" friendlyPos="1"/>
        <access lane="1201791713_0" pos="0.00" length="86.62" friendlyPos="1"/>
        <access lane="185707200#0_0" pos="64.00" length="35.96" friendlyPos="1"/>
        <access lane="287521395_0" pos="1.73" length="84.94" friendlyPos="1"/>
    </busStop>
    <busStop id="6242129325" name="Улица Мнёвники" lane="28053297#1_0" startPos="93.90" endPos="108.90" friendlyPos="true" lines="м3а м3">
        <access lane="-1074588680#1_0" pos="17.51" length="43.95" friendlyPos="1"/>
        <access lane="-129110159_0" pos="31.44" length="49.23" friendlyPos="1"/>
        <access lane="1074588680#1_0" pos="147.20" length="39.15" friendlyPos="1"/>
        <access lane="1124272492_0" pos="0.00" length="57.65" friendlyPos="1"/>
        <access lane="129110159_0" pos="0.00" length="48.29" friendlyPos="1"/>
    </busStop>
    <busStop id="6242129326" name="Улица Мнёвники" lane="23396772#0_0" startPos="57.39" endPos="72.39" friendlyPos="true" lines="м3а м3">
        <access lane="-157600521#4_0" pos="0.00" length="68.30" friendlyPos="1"/>
        <access lane="-427194002#0_0" pos="18.02" length="57.36" friendlyPos="1"/>
        <access lane="157600521#4_0" pos="260.40" length="71.53" friendlyPos="1"/>
        <access lane="427194002#0_0" pos="0.00" length="52.73" friendlyPos="1"/>
        <access lane="595760503_0" pos="30.30" length="45.95" friendlyPos="1"/>
    </busStop>
    <busStop id="981969019" name="Улица Мнёвники, 4" lane="497960128_0" startPos="0.00" endPos="15.00" friendlyPos="true" lines="294 48 403 391 800 322">
        <access lane="-139784157_0" pos="75.68" length="43.53" friendlyPos="1"/>
        <access lane="-185707213#1_0" pos="48.73" length="43.75" friendlyPos="1"/>
        <access lane="139784157_0" pos="0.00" length="48.23" friendlyPos="1"/>
        <access lane="157600567#0_0" pos="26.19" length="10.64" friendlyPos="1"/>
        <access lane="82496098#2_0" pos="31.44" length="46.47" friendlyPos="1"/>
    </busStop>
</additional>
